--------------------------------------------------------------------------
[[50859,1],1]: A high-performance Open MPI point-to-point messaging module
was unable to find any relevant network interfaces:

Module: OpenFabrics (openib)
  Host: ob-mac

Another transport will be used instead, although this may result in
lower performance.
--------------------------------------------------------------------------
/*---------------------------------------------------------------------------*\
| =========                 |                                                 |
| \\      /  F ield         | OpenFOAM: The Open Source CFD Toolbox           |
|  \\    /   O peration     | Version:  v1812                                 |
|   \\  /    A nd           | Web:      www.OpenFOAM.com                      |
|    \\/     M anipulation  |                                                 |
\*---------------------------------------------------------------------------*/
Build  : v1812 OPENFOAM=1812
Arch   : "LSB;label=32;scalar=64"
Exec   : simpleFoam -parallel
Date   : Aug 10 2022
Time   : 16:15:26
Host   : ob-mac
PID    : 384501
I/O    : uncollated
Case   : /home/ob/Documents/GitHub/humpLES
nProcs : 4
Hosts  :
(
    (ob-mac 4)
)
Pstream initialized with:
    floatTransfer      : 0
    nProcsSimpleSum    : 0
    commsType          : nonBlocking
    polling iterations : 0
trapFpe: Floating point exception trapping enabled (FOAM_SIGFPE).
fileModificationChecking : Monitoring run-time modified files using timeStampMaster (fileModificationSkew 10)
allowSystemOperations : Allowing user-supplied system call operations

// * * * * * * * * * * * * * * * * * * * * * * * * * * * * * * * * * * * * * //
Create time

Create mesh for time = 0


SIMPLE: no convergence criteria found. Calculations will run for 15000 steps.

Reading field p

Reading field U

Reading/calculating face flux field phi

Selecting incompressible transport model Newtonian
Selecting turbulence model type RAS
Selecting RAS turbulence model kOmegaSST
Selecting patchDistMethod meshWave
bounding k, min: 1e-16 max: 1.0684e-07 average: 1.068400000000258e-07
No MRF models present

No finite volume options present

Starting time loop

Time = 1

DILUPBiCGStab:  Solving for Ux, Initial residual = 1, Final residual = 4.049314497594486e-11, No Iterations 7
DILUPBiCGStab:  Solving for Uy, Initial residual = 1, Final residual = 7.616595565324085e-11, No Iterations 7
DILUPBiCGStab:  Solving for Uz, Initial residual = 0.824975418776464, Final residual = 8.056305126358959e-11, No Iterations 12
GAMG:  Solving for p, Initial residual = 1, Final residual = 0.04403590430548351, No Iterations 10
time step continuity errors : sum local = 0.001718764093140904, global = 0.0002082811693184692, cumulative = 0.0002082811693184692
DILUPBiCGStab:  Solving for omega, Initial residual = 1, Final residual = 4.340308686070685e-11, No Iterations 6
DILUPBiCGStab:  Solving for k, Initial residual = 0.9999999999999476, Final residual = 4.968809224590767e-11, No Iterations 7
bounding k, min: 1e-16 max: 9.701905833316762e-07 average: 1.715252166696574e-07
ExecutionTime = 0.9 s  ClockTime = 2 s

Time = 2

DILUPBiCGStab:  Solving for Ux, Initial residual = 0.2225184985681341, Final residual = 8.031056806690203e-11, No Iterations 11
DILUPBiCGStab:  Solving for Uy, Initial residual = 0.3306366513140322, Final residual = 5.836175674142309e-11, No Iterations 11
DILUPBiCGStab:  Solving for Uz, Initial residual = 0.6896838789388957, Final residual = 3.001043584437227e-11, No Iterations 9
GAMG:  Solving for p, Initial residual = 0.3903950416717106, Final residual = 0.01614591328979613, No Iterations 3
time step continuity errors : sum local = 0.0272516805449504, global = -9.335344165485007e-05, cumulative = 0.0001149277276636191
DILUPBiCGStab:  Solving for omega, Initial residual = 0.8526993559870113, Final residual = 6.618852303225238e-11, No Iterations 3
DILUPBiCGStab:  Solving for k, Initial residual = 0.5953819508178785, Final residual = 4.817472364067179e-11, No Iterations 12
bounding k, min: 1e-16 max: 1.270320676975979e-06 average: 1.385228267523346e-07
ExecutionTime = 1.41 s  ClockTime = 3 s

Time = 3

DILUPBiCGStab:  Solving for Ux, Initial residual = 0.09296008819661042, Final residual = 6.153033086866361e-11, No Iterations 13
DILUPBiCGStab:  Solving for Uy, Initial residual = 0.1420993896541591, Final residual = 9.265515772765642e-11, No Iterations 14
DILUPBiCGStab:  Solving for Uz, Initial residual = 0.7236085481657971, Final residual = 6.899496889470873e-11, No Iterations 10
GAMG:  Solving for p, Initial residual = 0.4199618709662187, Final residual = 0.01431344879040969, No Iterations 5
time step continuity errors : sum local = 0.009853120523984942, global = 0.002229392379265816, cumulative = 0.002344320106929435
DILUPBiCGStab:  Solving for omega, Initial residual = 0.1901380547602463, Final residual = 7.270110924055535e-11, No Iterations 5
DILUPBiCGStab:  Solving for k, Initial residual = 0.1738393824813972, Final residual = 4.709069942844946e-11, No Iterations 11
bounding k, min: 1e-16 max: 2.588807784054852e-06 average: 1.521662025968106e-07
ExecutionTime = 1.98 s  ClockTime = 4 s

Time = 4

DILUPBiCGStab:  Solving for Ux, Initial residual = 0.05370637823350576, Final residual = 5.992554403536406e-11, No Iterations 12
DILUPBiCGStab:  Solving for Uy, Initial residual = 0.07209650467476708, Final residual = 7.844235747094965e-11, No Iterations 12
DILUPBiCGStab:  Solving for Uz, Initial residual = 0.6966835467859069, Final residual = 7.449423378870661e-11, No Iterations 9
GAMG:  Solving for p, Initial residual = 0.1306972532274229, Final residual = 0.006179425598120235, No Iterations 4
time step continuity errors : sum local = 0.007773768569153928, global = -0.0008285691053584995, cumulative = 0.001515751001570936
DILUPBiCGStab:  Solving for omega, Initial residual = 0.02560214643686613, Final residual = 8.533170627466784e-11, No Iterations 5
DILUPBiCGStab:  Solving for k, Initial residual = 0.1566906940992921, Final residual = 4.819034960575e-11, No Iterations 10
bounding k, min: 1e-16 max: 5.861733703801801e-06 average: 1.870262080525213e-07
ExecutionTime = 2.38 s  ClockTime = 5 s

Time = 5

DILUPBiCGStab:  Solving for Ux, Initial residual = 0.04476525173899779, Final residual = 6.524228433188115e-11, No Iterations 11
DILUPBiCGStab:  Solving for Uy, Initial residual = 0.07941407997228163, Final residual = 4.819701166512714e-11, No Iterations 11
DILUPBiCGStab:  Solving for Uz, Initial residual = 0.6650723700945441, Final residual = 7.466752317109906e-11, No Iterations 9
GAMG:  Solving for p, Initial residual = 0.109461228188469, Final residual = 0.003542451334839253, No Iterations 5
time step continuity errors : sum local = 0.003112185328091223, global = -0.0004195562212078697, cumulative = 0.001096194780363066
[ob-mac:384496] 3 more processes have sent help message help-mpi-btl-base.txt / btl:no-nics
[ob-mac:384496] Set MCA parameter "orte_base_help_aggregate" to 0 to see all help / error messages
DILUPBiCGStab:  Solving for omega, Initial residual = 0.01784994159011368, Final residual = 8.897183202262917e-11, No Iterations 4
DILUPBiCGStab:  Solving for k, Initial residual = 0.1554664945814287, Final residual = 5.902412396833342e-11, No Iterations 8
bounding k, min: 1e-16 max: 1.536663261304652e-05 average: 2.452242843150127e-07
ExecutionTime = 2.8 s  ClockTime = 6 s

Time = 6

DILUPBiCGStab:  Solving for Ux, Initial residual = 0.03469484247681099, Final residual = 4.476763982739723e-11, No Iterations 10
DILUPBiCGStab:  Solving for Uy, Initial residual = 0.07012837525874721, Final residual = 7.294986116047287e-11, No Iterations 10
DILUPBiCGStab:  Solving for Uz, Initial residual = 0.687993469523449, Final residual = 2.501610776048764e-11, No Iterations 9
GAMG:  Solving for p, Initial residual = 0.1634896567658972, Final residual = 0.007822289462408989, No Iterations 3
time step continuity errors : sum local = 0.003722760456761618, global = -0.0002788799415750738, cumulative = 0.0008173148387879923
DILUPBiCGStab:  Solving for omega, Initial residual = 0.00913662812243651, Final residual = 7.91176187943828e-11, No Iterations 5
DILUPBiCGStab:  Solving for k, Initial residual = 0.1584954852836842, Final residual = 6.307040461061428e-11, No Iterations 8
bounding k, min: 1e-16 max: 2.049680198185301e-05 average: 3.21021594926978e-07
ExecutionTime = 3.15 s  ClockTime = 6 s

Time = 7

DILUPBiCGStab:  Solving for Ux, Initial residual = 0.02543999367155193, Final residual = 3.786600291785593e-11, No Iterations 10
DILUPBiCGStab:  Solving for Uy, Initial residual = 0.04444580113621759, Final residual = 4.185309569528055e-11, No Iterations 10
DILUPBiCGStab:  Solving for Uz, Initial residual = 0.6858828407862584, Final residual = 7.671620242884578e-11, No Iterations 9
GAMG:  Solving for p, Initial residual = 0.1631039048377749, Final residual = 0.005782579169080074, No Iterations 4
time step continuity errors : sum local = 0.002311588277800775, global = 0.0003174439768407158, cumulative = 0.001134758815628708
DILUPBiCGStab:  Solving for omega, Initial residual = 0.005709785539156518, Final residual = 5.822047219521355e-12, No Iterations 6
DILUPBiCGStab:  Solving for k, Initial residual = 0.16651043748394, Final residual = 5.164203558989741e-11, No Iterations 8
bounding k, min: 1e-16 max: 3.304964997179697e-05 average: 4.132953554710549e-07
ExecutionTime = 3.44 s  ClockTime = 7 s

Time = 8

DILUPBiCGStab:  Solving for Ux, Initial residual = 0.01934215983354212, Final residual = 8.539469870180141e-11, No Iterations 9
DILUPBiCGStab:  Solving for Uy, Initial residual = 0.0407268707493724, Final residual = 7.175583514790617e-11, No Iterations 10
DILUPBiCGStab:  Solving for Uz, Initial residual = 0.6303976864446127, Final residual = 9.367967360257587e-11, No Iterations 9
GAMG:  Solving for p, Initial residual = 0.1731722287225863, Final residual = 0.005922575747681895, No Iterations 4
time step continuity errors : sum local = 0.00172192447099164, global = 0.000167090272663282, cumulative = 0.00130184908829199
DILUPBiCGStab:  Solving for omega, Initial residual = 0.003319346495032876, Final residual = 5.466654833825802e-11, No Iterations 4
DILUPBiCGStab:  Solving for k, Initial residual = 0.1792530273718085, Final residual = 8.51423226176869e-11, No Iterations 8
bounding k, min: 1e-16 max: 4.504153254004555e-05 average: 5.14775621280389e-07
ExecutionTime = 3.73 s  ClockTime = 8 s

Time = 9

DILUPBiCGStab:  Solving for Ux, Initial residual = 0.01527119727726786, Final residual = 8.27450495545803e-11, No Iterations 9
DILUPBiCGStab:  Solving for Uy, Initial residual = 0.0334317809631933, Final residual = 7.247842744469609e-11, No Iterations 10
DILUPBiCGStab:  Solving for Uz, Initial residual = 0.5478228585618458, Final residual = 6.590999395699055e-11, No Iterations 9
GAMG:  Solving for p, Initial residual = 0.1146586027122597, Final residual = 0.004505307435295179, No Iterations 3
time step continuity errors : sum local = 0.001748461207017993, global = -0.0001439170360660711, cumulative = 0.001157932052225919
DILUPBiCGStab:  Solving for omega, Initial residual = 0.002079531383004526, Final residual = 4.557422020359529e-11, No Iterations 4
DILUPBiCGStab:  Solving for k, Initial residual = 0.1945590590353846, Final residual = 3.296779198205343e-11, No Iterations 9
bounding k, min: 1e-16 max: 8.043559264930107e-05 average: 6.507241397224674e-07
ExecutionTime = 4.02 s  ClockTime = 8 s

Time = 10

DILUPBiCGStab:  Solving for Ux, Initial residual = 0.01307983317788996, Final residual = 6.999665939978234e-11, No Iterations 10
DILUPBiCGStab:  Solving for Uy, Initial residual = 0.02866917723843259, Final residual = 4.910885037190424e-11, No Iterations 10
DILUPBiCGStab:  Solving for Uz, Initial residual = 0.4742600219562907, Final residual = 4.957138483151329e-11, No Iterations 9
GAMG:  Solving for p, Initial residual = 0.09841343336060066, Final residual = 0.004492102276574723, No Iterations 3
time step continuity errors : sum local = 0.001693749770048114, global = -5.926332482250917e-05, cumulative = 0.00109866872740341
DILUPBiCGStab:  Solving for omega, Initial residual = 0.00128154020205859, Final residual = 8.907315724482905e-11, No Iterations 4
DILUPBiCGStab:  Solving for k, Initial residual = 0.2085197680405534, Final residual = 3.67802692844086e-11, No Iterations 8
bounding k, min: 1e-16 max: 0.0001432734321868113 average: 8.612774548689172e-07
ExecutionTime = 4.26 s  ClockTime = 9 s

Time = 11

DILUPBiCGStab:  Solving for Ux, Initial residual = 0.01134055359394634, Final residual = 6.705739242171434e-11, No Iterations 10
DILUPBiCGStab:  Solving for Uy, Initial residual = 0.02380048843104336, Final residual = 6.828418113383287e-11, No Iterations 11
DILUPBiCGStab:  Solving for Uz, Initial residual = 0.4315423209492628, Final residual = 4.797681071060165e-11, No Iterations 9
GAMG:  Solving for p, Initial residual = 0.08777325731835371, Final residual = 0.002965921673223748, No Iterations 3
time step continuity errors : sum local = 0.001127127044736078, global = 6.020721289545343e-05, cumulative = 0.001158875940298863
DILUPBiCGStab:  Solving for omega, Initial residual = 0.0008275091679755541, Final residual = 6.70373547211426e-11, No Iterations 4
DILUPBiCGStab:  Solving for k, Initial residual = 0.2196884296351579, Final residual = 2.597922920133869e-11, No Iterations 8
bounding k, min: 1e-16 max: 0.0002540925848624412 average: 1.204743319977054e-06
ExecutionTime = 4.63 s  ClockTime = 10 s

Time = 12

DILUPBiCGStab:  Solving for Ux, Initial residual = 0.009786576330919965, Final residual = 9.974730585655537e-11, No Iterations 10
DILUPBiCGStab:  Solving for Uy, Initial residual = 0.02257475631337068, Final residual = 5.796079805180369e-11, No Iterations 11
DILUPBiCGStab:  Solving for Uz, Initial residual = 0.4768427102885847, Final residual = 4.480147069087463e-11, No Iterations 9
GAMG:  Solving for p, Initial residual = 0.07105781784943807, Final residual = 0.002276372911336286, No Iterations 3
time step continuity errors : sum local = 0.0009425451789553166, global = -3.483467760449906e-05, cumulative = 0.001124041262694364
DILUPBiCGStab:  Solving for omega, Initial residual = 0.0005281759575816261, Final residual = 2.048117901047044e-11, No Iterations 5
DILUPBiCGStab:  Solving for k, Initial residual = 0.2275759014032302, Final residual = 4.746135097668826e-11, No Iterations 8
bounding k, min: 1e-16 max: 0.0004489615226482116 average: 1.772269453520918e-06
ExecutionTime = 5.08 s  ClockTime = 11 s

Time = 13

DILUPBiCGStab:  Solving for Ux, Initial residual = 0.008706891821914588, Final residual = 4.839927147640088e-11, No Iterations 10
DILUPBiCGStab:  Solving for Uy, Initial residual = 0.02188460410849139, Final residual = 7.743340371115582e-11, No Iterations 11
DILUPBiCGStab:  Solving for Uz, Initial residual = 0.4228545520503177, Final residual = 2.404062201457657e-11, No Iterations 10
GAMG:  Solving for p, Initial residual = 0.0697821683344647, Final residual = 0.002379791926813741, No Iterations 3
time step continuity errors : sum local = 0.0009120765058502511, global = 2.714420176903261e-05, cumulative = 0.001151185464463397
DILUPBiCGStab:  Solving for omega, Initial residual = 0.0003537704282184405, Final residual = 4.715884477076674e-11, No Iterations 4
DILUPBiCGStab:  Solving for k, Initial residual = 0.2327942494441429, Final residual = 3.249013782662861e-11, No Iterations 8
bounding k, min: 1e-16 max: 0.0007909242297476942 average: 2.657606411742677e-06
ExecutionTime = 5.64 s  ClockTime = 11 s

Time = 14

DILUPBiCGStab:  Solving for Ux, Initial residual = 0.007929928739098169, Final residual = 7.062468129069699e-11, No Iterations 10
DILUPBiCGStab:  Solving for Uy, Initial residual = 0.01971592224593594, Final residual = 8.206502591363382e-11, No Iterations 11
DILUPBiCGStab:  Solving for Uz, Initial residual = 0.3817257234714829, Final residual = 6.908988962069721e-11, No Iterations 9
GAMG:  Solving for p, Initial residual = 0.06181970868093286, Final residual = 0.00296406281193236, No Iterations 3
time step continuity errors : sum local = 0.001113622692872078, global = -4.752074885474965e-05, cumulative = 0.001103664715608647
DILUPBiCGStab:  Solving for omega, Initial residual = 0.0002338574449858622, Final residual = 3.534554208227899e-11, No Iterations 4
DILUPBiCGStab:  Solving for k, Initial residual = 0.2365629689984832, Final residual = 7.764290775002084e-11, No Iterations 7
bounding k, min: 1e-16 max: 0.001387111011496509 average: 3.887979632229316e-06
ExecutionTime = 6.22 s  ClockTime = 12 s

Time = 15

DILUPBiCGStab:  Solving for Ux, Initial residual = 0.00704324325129449, Final residual = 5.257985142836932e-11, No Iterations 10
DILUPBiCGStab:  Solving for Uy, Initial residual = 0.01926422929942906, Final residual = 6.351480937154921e-11, No Iterations 11
DILUPBiCGStab:  Solving for Uz, Initial residual = 0.3649987680391996, Final residual = 7.487011120529094e-11, No Iterations 9
GAMG:  Solving for p, Initial residual = 0.05958700498718685, Final residual = 0.002553124084419505, No Iterations 3
time step continuity errors : sum local = 0.0009056630055192155, global = 8.742460198690055e-05, cumulative = 0.001191089317595548
DILUPBiCGStab:  Solving for omega, Initial residual = 0.0001615633298949098, Final residual = 3.11867454556983e-11, No Iterations 4
DILUPBiCGStab:  Solving for k, Initial residual = 0.239556426362295, Final residual = 5.640873752793884e-11, No Iterations 7
bounding k, min: 1e-16 max: 0.002416618015662954 average: 5.703126958997834e-06
ExecutionTime = 6.52 s  ClockTime = 13 s

Time = 16

DILUPBiCGStab:  Solving for Ux, Initial residual = 0.00659136296059883, Final residual = 5.664268238365584e-11, No Iterations 10
DILUPBiCGStab:  Solving for Uy, Initial residual = 0.0169713345116857, Final residual = 7.859454443957683e-11, No Iterations 10
DILUPBiCGStab:  Solving for Uz, Initial residual = 0.3506145377147433, Final residual = 4.637160090606305e-11, No Iterations 10
GAMG:  Solving for p, Initial residual = 0.05539937556992418, Final residual = 0.002254259538677142, No Iterations 3
time step continuity errors : sum local = 0.0007755757781850566, global = 4.343315005769279e-06, cumulative = 0.001195432632601317
DILUPBiCGStab:  Solving for omega, Initial residual = 0.0001114597811783815, Final residual = 9.278727501071205e-11, No Iterations 4
DILUPBiCGStab:  Solving for k, Initial residual = 0.2375193978594703, Final residual = 9.468073354294404e-11, No Iterations 7
bounding k, min: 1e-16 max: 0.004062983627764898 average: 8.482187413342784e-06
ExecutionTime = 6.79 s  ClockTime = 13 s

Time = 17

DILUPBiCGStab:  Solving for Ux, Initial residual = 0.00609736863460777, Final residual = 2.77768051977317e-11, No Iterations 11
DILUPBiCGStab:  Solving for Uy, Initial residual = 0.01532500427159087, Final residual = 7.632694100112431e-11, No Iterations 11
DILUPBiCGStab:  Solving for Uz, Initial residual = 0.3339742027574973, Final residual = 9.866518399693742e-11, No Iterations 10
GAMG:  Solving for p, Initial residual = 0.05162805405462639, Final residual = 0.001720143672178516, No Iterations 3
time step continuity errors : sum local = 0.0005773607581176628, global = 5.338282708428635e-05, cumulative = 0.001248815459685603
DILUPBiCGStab:  Solving for omega, Initial residual = 7.867574773842314e-05, Final residual = 4.18542380914256e-11, No Iterations 4
DILUPBiCGStab:  Solving for k, Initial residual = 0.1852008513676206, Final residual = 8.09485849359062e-11, No Iterations 7
bounding k, min: 1e-16 max: 0.005644055429424797 average: 1.212563759549036e-05
ExecutionTime = 7.12 s  ClockTime = 14 s

Time = 18

DILUPBiCGStab:  Solving for Ux, Initial residual = 0.005618161038571877, Final residual = 4.185143768211667e-11, No Iterations 11
DILUPBiCGStab:  Solving for Uy, Initial residual = 0.01380898574595737, Final residual = 6.103671132021896e-11, No Iterations 11
DILUPBiCGStab:  Solving for Uz, Initial residual = 0.357470601736839, Final residual = 5.216757895274889e-11, No Iterations 10
GAMG:  Solving for p, Initial residual = 0.04835619919633927, Final residual = 0.001410669551064551, No Iterations 3
time step continuity errors : sum local = 0.0004578917916492193, global = -1.649288473367442e-06, cumulative = 0.001247166171212236
DILUPBiCGStab:  Solving for omega, Initial residual = 5.99111987525409e-05, Final residual = 3.537531389913994e-11, No Iterations 4
DILUPBiCGStab:  Solving for k, Initial residual = 0.1502754904034119, Final residual = 7.812440297738717e-11, No Iterations 7
bounding k, min: 1e-16 max: 0.007391501583670843 average: 1.676111310019909e-05
ExecutionTime = 7.48 s  ClockTime = 14 s

Time = 19

DILUPBiCGStab:  Solving for Ux, Initial residual = 0.00538314373945688, Final residual = 5.875138106001288e-11, No Iterations 10
DILUPBiCGStab:  Solving for Uy, Initial residual = 0.01244616064660137, Final residual = 5.174871230975044e-11, No Iterations 11
DILUPBiCGStab:  Solving for Uz, Initial residual = 0.3439685912707395, Final residual = 9.126461027485891e-11, No Iterations 10
GAMG:  Solving for p, Initial residual = 0.04349631121477438, Final residual = 0.001222958069517533, No Iterations 3
time step continuity errors : sum local = 0.0004058688938752745, global = 7.850223578219653e-07, cumulative = 0.001247951193570058
DILUPBiCGStab:  Solving for omega, Initial residual = 4.112731914042759e-05, Final residual = 4.390215729259762e-11, No Iterations 4
DILUPBiCGStab:  Solving for k, Initial residual = 0.1239822136098033, Final residual = 4.252761932400886e-11, No Iterations 7
bounding k, min: 1e-16 max: 0.009347517255307291 average: 2.252410109930485e-05
ExecutionTime = 7.93 s  ClockTime = 15 s

Time = 20

DILUPBiCGStab:  Solving for Ux, Initial residual = 0.005013780112083642, Final residual = 8.817576991482212e-11, No Iterations 10
DILUPBiCGStab:  Solving for Uy, Initial residual = 0.01192601021760348, Final residual = 5.466698237763241e-11, No Iterations 11
DILUPBiCGStab:  Solving for Uz, Initial residual = 0.3468184048940158, Final residual = 8.542419001472868e-11, No Iterations 11
GAMG:  Solving for p, Initial residual = 0.04019592873328354, Final residual = 0.001368397306707517, No Iterations 3
time step continuity errors : sum local = 0.0004458576241328231, global = 2.800484743007042e-05, cumulative = 0.001275956041000128
DILUPBiCGStab:  Solving for omega, Initial residual = 3.407241509865097e-05, Final residual = 4.711463648494695e-11, No Iterations 4
DILUPBiCGStab:  Solving for k, Initial residual = 0.1086816534226225, Final residual = 3.949769056224833e-11, No Iterations 7
bounding k, min: 1e-16 max: 0.01154897908329872 average: 2.970607029460611e-05
ExecutionTime = 8.199999999999999 s  ClockTime = 16 s

Time = 21

DILUPBiCGStab:  Solving for Ux, Initial residual = 0.004749589008036235, Final residual = 8.667718064419773e-11, No Iterations 11
DILUPBiCGStab:  Solving for Uy, Initial residual = 0.01106810794326337, Final residual = 4.690289558780325e-11, No Iterations 11
DILUPBiCGStab:  Solving for Uz, Initial residual = 0.3427183738848836, Final residual = 3.924523631348168e-11, No Iterations 10
GAMG:  Solving for p, Initial residual = 0.03785507708167564, Final residual = 0.001282272670864626, No Iterations 3
time step continuity errors : sum local = 0.0004278523016634194, global = -2.721128247435304e-05, cumulative = 0.001248744758525775
DILUPBiCGStab:  Solving for omega, Initial residual = 2.340853557118557e-05, Final residual = 4.327467824145266e-11, No Iterations 4
DILUPBiCGStab:  Solving for k, Initial residual = 0.09716776701972309, Final residual = 6.346659295667328e-11, No Iterations 7
bounding k, min: 1e-16 max: 0.01398519880135306 average: 3.860375353526297e-05
ExecutionTime = 8.65 s  ClockTime = 17 s

Time = 22

DILUPBiCGStab:  Solving for Ux, Initial residual = 0.004481262990991245, Final residual = 8.32407017023292e-11, No Iterations 11
DILUPBiCGStab:  Solving for Uy, Initial residual = 0.01089392019375485, Final residual = 5.467164223816627e-11, No Iterations 11
DILUPBiCGStab:  Solving for Uz, Initial residual = 0.3227559091617174, Final residual = 9.631780046068439e-11, No Iterations 10
GAMG:  Solving for p, Initial residual = 0.03510531876244034, Final residual = 0.001243131028824883, No Iterations 3
time step continuity errors : sum local = 0.0004153927501751952, global = 2.654605958060215e-05, cumulative = 0.001275290818106377
DILUPBiCGStab:  Solving for omega, Initial residual = 2.084260158883823e-05, Final residual = 6.252568012819125e-11, No Iterations 4
DILUPBiCGStab:  Solving for k, Initial residual = 0.08835510863295201, Final residual = 5.848968977664949e-12, No Iterations 9
bounding k, min: 1e-16 max: 0.01668631666178673 average: 4.957821383738806e-05
ExecutionTime = 8.98 s  ClockTime = 17 s

Time = 23

DILUPBiCGStab:  Solving for Ux, Initial residual = 0.004161423401690815, Final residual = 5.905729086376799e-11, No Iterations 11
DILUPBiCGStab:  Solving for Uy, Initial residual = 0.01015104489067763, Final residual = 6.236163504241244e-11, No Iterations 11
DILUPBiCGStab:  Solving for Uz, Initial residual = 0.3201246540450645, Final residual = 5.080131746492683e-11, No Iterations 10
GAMG:  Solving for p, Initial residual = 0.03180424744124696, Final residual = 0.001252110404264711, No Iterations 3
time step continuity errors : sum local = 0.0004277398038249029, global = -2.670159638779991e-05, cumulative = 0.001248589221718577
DILUPBiCGStab:  Solving for omega, Initial residual = 1.470915925537389e-05, Final residual = 5.215050063971775e-11, No Iterations 4
DILUPBiCGStab:  Solving for k, Initial residual = 0.08126004501035534, Final residual = 1.015211628854588e-11, No Iterations 9
bounding k, min: 1e-16 max: 0.01967420484368898 average: 6.31455056196612e-05
ExecutionTime = 9.41 s  ClockTime = 18 s

Time = 24

DILUPBiCGStab:  Solving for Ux, Initial residual = 0.003992348109578541, Final residual = 5.473905089007205e-11, No Iterations 11
DILUPBiCGStab:  Solving for Uy, Initial residual = 0.009507152756934948, Final residual = 8.394478716593066e-11, No Iterations 11
DILUPBiCGStab:  Solving for Uz, Initial residual = 0.3141530411393242, Final residual = 8.654672113239109e-11, No Iterations 10
GAMG:  Solving for p, Initial residual = 0.02906849669598152, Final residual = 0.0009366874420128557, No Iterations 3
time step continuity errors : sum local = 0.0003240909723511323, global = 1.919049025535871e-05, cumulative = 0.001267779711973936
DILUPBiCGStab:  Solving for omega, Initial residual = 1.392351371256531e-05, Final residual = 4.607028318767598e-11, No Iterations 4
DILUPBiCGStab:  Solving for k, Initial residual = 0.07570098667630265, Final residual = 2.242758735594473e-11, No Iterations 9
bounding k, min: 1e-16 max: 0.02304395818984438 average: 7.983581429747229e-05
ExecutionTime = 9.65 s  ClockTime = 18 s

Time = 25

DILUPBiCGStab:  Solving for Ux, Initial residual = 0.003790807296915351, Final residual = 1.926030365195549e-11, No Iterations 12
DILUPBiCGStab:  Solving for Uy, Initial residual = 0.009588006925176388, Final residual = 8.373828003317858e-11, No Iterations 11
DILUPBiCGStab:  Solving for Uz, Initial residual = 0.312248096073751, Final residual = 8.710671275116243e-11, No Iterations 10
GAMG:  Solving for p, Initial residual = 0.02760473229874156, Final residual = 0.001045950792787133, No Iterations 3
time step continuity errors : sum local = 0.0003610140321085517, global = -2.042909935156709e-05, cumulative = 0.001247350612622369
DILUPBiCGStab:  Solving for omega, Initial residual = 1.026337779579754e-05, Final residual = 9.863237398858838e-11, No Iterations 4
DILUPBiCGStab:  Solving for k, Initial residual = 0.07128148545110291, Final residual = 6.379665741423727e-11, No Iterations 8
bounding k, min: 1e-16 max: 0.02685445237383376 average: 0.0001003327416133703
ExecutionTime = 9.98 s  ClockTime = 19 s

Time = 26

DILUPBiCGStab:  Solving for Ux, Initial residual = 0.00378112651347313, Final residual = 2.04698617435889e-11, No Iterations 12
DILUPBiCGStab:  Solving for Uy, Initial residual = 0.009238096286115195, Final residual = 7.994194987059704e-11, No Iterations 12
DILUPBiCGStab:  Solving for Uz, Initial residual = 0.3153890310839724, Final residual = 4.899459460127492e-11, No Iterations 10
GAMG:  Solving for p, Initial residual = 0.02581900005533406, Final residual = 0.0008862867106587041, No Iterations 3
time step continuity errors : sum local = 0.000310766016516025, global = -8.704190734408389e-06, cumulative = 0.001238646421887961
DILUPBiCGStab:  Solving for omega, Initial residual = 1.020097730770414e-05, Final residual = 4.593800176139124e-11, No Iterations 4
DILUPBiCGStab:  Solving for k, Initial residual = 0.06788086769789498, Final residual = 7.617760420070677e-11, No Iterations 8
bounding k, min: 1e-16 max: 0.03118174411030583 average: 0.0001251674429244203
ExecutionTime = 10.25 s  ClockTime = 20 s

Time = 27

DILUPBiCGStab:  Solving for Ux, Initial residual = 0.003598015283064318, Final residual = 9.893696807228229e-11, No Iterations 11
DILUPBiCGStab:  Solving for Uy, Initial residual = 0.009698122226604218, Final residual = 8.160239933172379e-12, No Iterations 13
DILUPBiCGStab:  Solving for Uz, Initial residual = 0.3028406535884119, Final residual = 3.702953456394321e-11, No Iterations 11
GAMG:  Solving for p, Initial residual = 0.02478468684125949, Final residual = 0.0009333470486253189, No Iterations 3
time step continuity errors : sum local = 0.000327663475203447, global = -6.320644977008347e-07, cumulative = 0.00123801435739026
DILUPBiCGStab:  Solving for omega, Initial residual = 7.900293847145896e-06, Final residual = 4.390537832285527e-11, No Iterations 4
DILUPBiCGStab:  Solving for k, Initial residual = 0.06494673993098349, Final residual = 9.083260649801588e-11, No Iterations 8
bounding k, min: 1e-16 max: 0.03607050581728519 average: 0.0001549940919847766
ExecutionTime = 10.61 s  ClockTime = 20 s

Time = 28

DILUPBiCGStab:  Solving for Ux, Initial residual = 0.003610741763627327, Final residual = 7.24260563231835e-11, No Iterations 11
DILUPBiCGStab:  Solving for Uy, Initial residual = 0.009404559818835301, Final residual = 8.528409106174087e-11, No Iterations 12
DILUPBiCGStab:  Solving for Uz, Initial residual = 0.2941485712054384, Final residual = 6.566914580802055e-11, No Iterations 10
GAMG:  Solving for p, Initial residual = 0.02362381322427282, Final residual = 0.0008461491384962693, No Iterations 3
time step continuity errors : sum local = 0.0002996402795483237, global = 1.130582663992603e-06, cumulative = 0.001239144940054253
DILUPBiCGStab:  Solving for omega, Initial residual = 8.095321777925487e-06, Final residual = 5.610247030055595e-11, No Iterations 4
DILUPBiCGStab:  Solving for k, Initial residual = 0.06238159520127964, Final residual = 9.725353672673957e-11, No Iterations 8
bounding k, min: 1e-16 max: 0.04154811280314655 average: 0.0001905980303620096
ExecutionTime = 10.93 s  ClockTime = 21 s

Time = 29

DILUPBiCGStab:  Solving for Ux, Initial residual = 0.003507835385219842, Final residual = 6.381692896144145e-11, No Iterations 11
DILUPBiCGStab:  Solving for Uy, Initial residual = 0.009829102910485032, Final residual = 6.506931927461341e-11, No Iterations 11
DILUPBiCGStab:  Solving for Uz, Initial residual = 0.3023493384350435, Final residual = 8.249786904858928e-11, No Iterations 10
GAMG:  Solving for p, Initial residual = 0.0229109660559513, Final residual = 0.0008582276676230103, No Iterations 3
time step continuity errors : sum local = 0.0003043292205220748, global = 1.135577866934627e-05, cumulative = 0.001250500718723599
DILUPBiCGStab:  Solving for omega, Initial residual = 6.539557017772611e-06, Final residual = 5.96947808855318e-11, No Iterations 4
DILUPBiCGStab:  Solving for k, Initial residual = 0.05997328551775508, Final residual = 9.785129532283535e-11, No Iterations 8
bounding k, min: 1e-16 max: 0.04764202568343961 average: 0.0002321378992701844
ExecutionTime = 11.33 s  ClockTime = 22 s

Time = 30

DILUPBiCGStab:  Solving for Ux, Initial residual = 0.003501017131727899, Final residual = 6.754935939661831e-11, No Iterations 11
DILUPBiCGStab:  Solving for Uy, Initial residual = 0.009703714848260393, Final residual = 8.061671201424688e-11, No Iterations 11
DILUPBiCGStab:  Solving for Uz, Initial residual = 0.2992472193131025, Final residual = 4.127309576997337e-11, No Iterations 10
GAMG:  Solving for p, Initial residual = 0.02206878959948195, Final residual = 0.0007371401475830927, No Iterations 3
time step continuity errors : sum local = 0.000262597309533273, global = -3.106381296799551e-07, cumulative = 0.001250190080593919
DILUPBiCGStab:  Solving for omega, Initial residual = 6.806481363869458e-06, Final residual = 3.69919128054305e-11, No Iterations 5
DILUPBiCGStab:  Solving for k, Initial residual = 0.05775217914503578, Final residual = 6.780102526502259e-11, No Iterations 9
bounding k, min: 1e-16 max: 0.05437892287870785 average: 0.0002801370097012502
ExecutionTime = 11.67 s  ClockTime = 22 s

Time = 31

DILUPBiCGStab:  Solving for Ux, Initial residual = 0.003452719694897385, Final residual = 4.767929155223145e-11, No Iterations 11
DILUPBiCGStab:  Solving for Uy, Initial residual = 0.0101257948178686, Final residual = 4.601375441630564e-11, No Iterations 12
DILUPBiCGStab:  Solving for Uz, Initial residual = 0.2851933003186459, Final residual = 4.444549470095544e-11, No Iterations 11
GAMG:  Solving for p, Initial residual = 0.02161559572562346, Final residual = 0.0007248927009472901, No Iterations 3
time step continuity errors : sum local = 0.0002597773086588786, global = 1.528127331807886e-06, cumulative = 0.001251718207925727
DILUPBiCGStab:  Solving for omega, Initial residual = 5.797983790268483e-06, Final residual = 5.757421863931412e-11, No Iterations 5
DILUPBiCGStab:  Solving for k, Initial residual = 0.05563587938262402, Final residual = 7.425792382836916e-11, No Iterations 9
bounding k, min: 1e-16 max: 0.06175103760423317 average: 0.0003347243454851265
ExecutionTime = 12.01 s  ClockTime = 23 s

Time = 32

DILUPBiCGStab:  Solving for Ux, Initial residual = 0.003436484786221235, Final residual = 4.201610554474096e-11, No Iterations 11
DILUPBiCGStab:  Solving for Uy, Initial residual = 0.01014922755549417, Final residual = 7.551436255257194e-11, No Iterations 12
DILUPBiCGStab:  Solving for Uz, Initial residual = 0.2841487958280375, Final residual = 8.933279864860712e-11, No Iterations 10
GAMG:  Solving for p, Initial residual = 0.02115693164400509, Final residual = 0.0007036387242429545, No Iterations 3
time step continuity errors : sum local = 0.0002539138722959332, global = -4.532153065788548e-07, cumulative = 0.001251264992619148
DILUPBiCGStab:  Solving for omega, Initial residual = 5.927758088810736e-06, Final residual = 5.348688443807112e-11, No Iterations 5
DILUPBiCGStab:  Solving for k, Initial residual = 0.05362400997380137, Final residual = 5.454629746723759e-11, No Iterations 9
bounding k, min: 1e-16 max: 0.06974281237120702 average: 0.0003960645912546717
ExecutionTime = 12.27 s  ClockTime = 23 s

Time = 33

DILUPBiCGStab:  Solving for Ux, Initial residual = 0.003420784049624878, Final residual = 8.840065384761265e-11, No Iterations 11
DILUPBiCGStab:  Solving for Uy, Initial residual = 0.01055393005849336, Final residual = 6.109693151171636e-11, No Iterations 12
DILUPBiCGStab:  Solving for Uz, Initial residual = 0.2935391475652804, Final residual = 8.040145658476753e-11, No Iterations 10
GAMG:  Solving for p, Initial residual = 0.02081409280185837, Final residual = 0.0007488715640465886, No Iterations 3
time step continuity errors : sum local = 0.00027325638619206, global = -8.71398533880713e-06, cumulative = 0.001242551007280341
DILUPBiCGStab:  Solving for omega, Initial residual = 5.295150086642986e-06, Final residual = 5.338088589013816e-11, No Iterations 5
DILUPBiCGStab:  Solving for k, Initial residual = 0.05168430915754924, Final residual = 5.951359111218776e-11, No Iterations 9
bounding k, min: 1e-16 max: 0.07832315448000303 average: 0.0004646413465592671
ExecutionTime = 12.61 s  ClockTime = 24 s

Time = 34

DILUPBiCGStab:  Solving for Ux, Initial residual = 0.00340742896398146, Final residual = 8.401218799020033e-11, No Iterations 11
DILUPBiCGStab:  Solving for Uy, Initial residual = 0.01066095023932533, Final residual = 1.591978917531661e-11, No Iterations 13
DILUPBiCGStab:  Solving for Uz, Initial residual = 0.2961316269715518, Final residual = 3.232341344105153e-11, No Iterations 11
GAMG:  Solving for p, Initial residual = 0.02032329169981017, Final residual = 0.0007722692793209503, No Iterations 3
time step continuity errors : sum local = 0.0002861261811207853, global = -6.388832466768031e-06, cumulative = 0.001236162174813573
DILUPBiCGStab:  Solving for omega, Initial residual = 5.267313016497257e-06, Final residual = 8.821662864317668e-11, No Iterations 5
DILUPBiCGStab:  Solving for k, Initial residual = 0.04979616236397843, Final residual = 8.082415330741321e-11, No Iterations 9
bounding k, min: 1e-16 max: 0.08744375640657795 average: 0.0005408510963244565
ExecutionTime = 12.96 s  ClockTime = 25 s

Time = 35

DILUPBiCGStab:  Solving for Ux, Initial residual = 0.00338539516595078, Final residual = 4.327072848302307e-11, No Iterations 11
DILUPBiCGStab:  Solving for Uy, Initial residual = 0.01103736221962097, Final residual = 8.429746041790619e-11, No Iterations 12
DILUPBiCGStab:  Solving for Uz, Initial residual = 0.2931508128905783, Final residual = 5.26631673484342e-11, No Iterations 11
GAMG:  Solving for p, Initial residual = 0.0199092036930089, Final residual = 0.0007505995400853687, No Iterations 3
time step continuity errors : sum local = 0.0002828040853560283, global = 1.842035189558684e-06, cumulative = 0.001238004210003131
DILUPBiCGStab:  Solving for omega, Initial residual = 4.830341006888157e-06, Final residual = 7.794480760419798e-11, No Iterations 5
DILUPBiCGStab:  Solving for k, Initial residual = 0.04796333336473592, Final residual = 6.827427670920805e-11, No Iterations 10
bounding k, min: 1e-16 max: 0.0970552582697141 average: 0.000625232276956567
ExecutionTime = 13.5 s  ClockTime = 26 s

Time = 36

DILUPBiCGStab:  Solving for Ux, Initial residual = 0.003366019475879428, Final residual = 8.786687950137169e-11, No Iterations 11
DILUPBiCGStab:  Solving for Uy, Initial residual = 0.01126456282200465, Final residual = 7.971052100896991e-11, No Iterations 12
DILUPBiCGStab:  Solving for Uz, Initial residual = 0.291439671408097, Final residual = 8.575872520653113e-11, No Iterations 11
GAMG:  Solving for p, Initial residual = 0.01950161783002767, Final residual = 0.0007734977449325331, No Iterations 3
time step continuity errors : sum local = 0.0002951067921022959, global = -2.691477030612029e-06, cumulative = 0.001235312732972519
DILUPBiCGStab:  Solving for omega, Initial residual = 4.720637011640991e-06, Final residual = 8.336569802450426e-11, No Iterations 5
DILUPBiCGStab:  Solving for k, Initial residual = 0.04614003521585033, Final residual = 7.340062277504728e-11, No Iterations 10
bounding k, min: 1e-16 max: 0.1070740437929586 average: 0.0007185348365586471
ExecutionTime = 13.83 s  ClockTime = 26 s

Time = 37

DILUPBiCGStab:  Solving for Ux, Initial residual = 0.003334443493178642, Final residual = 8.816108222131932e-11, No Iterations 11
DILUPBiCGStab:  Solving for Uy, Initial residual = 0.01163995006900353, Final residual = 8.127465199241367e-11, No Iterations 12
DILUPBiCGStab:  Solving for Uz, Initial residual = 0.2938500008023552, Final residual = 1.461431756501503e-11, No Iterations 12
GAMG:  Solving for p, Initial residual = 0.01908588557552164, Final residual = 0.0007503423439287673, No Iterations 3
time step continuity errors : sum local = 0.0002910426273127464, global = -4.262374490943131e-06, cumulative = 0.001231050358481576
DILUPBiCGStab:  Solving for omega, Initial residual = 4.410737652532745e-06, Final residual = 9.951908015436702e-11, No Iterations 5
DILUPBiCGStab:  Solving for k, Initial residual = 0.04435977518253693, Final residual = 4.636744314646687e-11, No Iterations 10
bounding k, min: 1e-16 max: 0.11740434065667 average: 0.0008212734932885296
ExecutionTime = 14.23 s  ClockTime = 27 s

Time = 38

DILUPBiCGStab:  Solving for Ux, Initial residual = 0.003310126262871707, Final residual = 5.377280055225367e-11, No Iterations 11
DILUPBiCGStab:  Solving for Uy, Initial residual = 0.01199926438718432, Final residual = 4.69035070432014e-11, No Iterations 12
DILUPBiCGStab:  Solving for Uz, Initial residual = 0.2985673966110219, Final residual = 4.393889952097857e-11, No Iterations 11
GAMG:  Solving for p, Initial residual = 0.01866108771480372, Final residual = 0.0007280668804944856, No Iterations 3
time step continuity errors : sum local = 0.0002868950384859176, global = -6.772450041405617e-06, cumulative = 0.001224277908440171
DILUPBiCGStab:  Solving for omega, Initial residual = 4.277863589915184e-06, Final residual = 5.02636794112119e-11, No Iterations 5
DILUPBiCGStab:  Solving for k, Initial residual = 0.04259000175721929, Final residual = 5.957123476293096e-11, No Iterations 10
bounding k, min: 1e-16 max: 0.1279908569015425 average: 0.0009340797522446113
ExecutionTime = 14.68 s  ClockTime = 28 s

Time = 39

DILUPBiCGStab:  Solving for Ux, Initial residual = 0.003285679127148184, Final residual = 5.682581206326547e-11, No Iterations 11
DILUPBiCGStab:  Solving for Uy, Initial residual = 0.0124305439346075, Final residual = 5.338118755971726e-11, No Iterations 12
DILUPBiCGStab:  Solving for Uz, Initial residual = 0.3028473583933491, Final residual = 9.114558107800178e-11, No Iterations 10
GAMG:  Solving for p, Initial residual = 0.01841534229609556, Final residual = 0.0006985012677637512, No Iterations 3
time step continuity errors : sum local = 0.0002792494751838359, global = -7.839800044439781e-06, cumulative = 0.001216438108395731
DILUPBiCGStab:  Solving for omega, Initial residual = 4.056093600297475e-06, Final residual = 5.536219435100311e-11, No Iterations 5
DILUPBiCGStab:  Solving for k, Initial residual = 0.04084581991671184, Final residual = 4.704940609696545e-11, No Iterations 11
bounding k, min: 1e-16 max: 0.1387191590777238 average: 0.001057250750958209
ExecutionTime = 15.13 s  ClockTime = 29 s

Time = 40

DILUPBiCGStab:  Solving for Ux, Initial residual = 0.003270825332281319, Final residual = 6.164695301726916e-11, No Iterations 11
DILUPBiCGStab:  Solving for Uy, Initial residual = 0.01294242442138114, Final residual = 7.06327923073152e-11, No Iterations 12
DILUPBiCGStab:  Solving for Uz, Initial residual = 0.3027164452159283, Final residual = 3.221606781205583e-11, No Iterations 11
GAMG:  Solving for p, Initial residual = 0.01832902511627839, Final residual = 0.0006400809802327225, No Iterations 3
time step continuity errors : sum local = 0.0002595616676541724, global = 3.031493956097946e-06, cumulative = 0.001219469602351829
DILUPBiCGStab:  Solving for omega, Initial residual = 3.927901578383487e-06, Final residual = 7.886577504098179e-11, No Iterations 5
DILUPBiCGStab:  Solving for k, Initial residual = 0.03911252769626821, Final residual = 8.934389689185242e-11, No Iterations 10
bounding k, min: 1e-16 max: 0.1495228842762568 average: 0.001190079249231283
ExecutionTime = 15.49 s  ClockTime = 29 s

Time = 41

DILUPBiCGStab:  Solving for Ux, Initial residual = 0.003276802777127301, Final residual = 3.273281046550434e-11, No Iterations 12
DILUPBiCGStab:  Solving for Uy, Initial residual = 0.01343048656849555, Final residual = 6.039379484144864e-11, No Iterations 12
DILUPBiCGStab:  Solving for Uz, Initial residual = 0.3063827506454363, Final residual = 8.867147028242174e-11, No Iterations 10
GAMG:  Solving for p, Initial residual = 0.01835072061564172, Final residual = 0.0006453247849897043, No Iterations 3
time step continuity errors : sum local = 0.0002640349748900754, global = 3.073195171009561e-06, cumulative = 0.001222542797522838
DILUPBiCGStab:  Solving for omega, Initial residual = 3.765177306829848e-06, Final residual = 7.754996856601472e-11, No Iterations 5
DILUPBiCGStab:  Solving for k, Initial residual = 0.03739672782553528, Final residual = 8.629939886841404e-12, No Iterations 12
bounding k, min: 1e-16 max: 0.1603425887442051 average: 0.001331282736567467
ExecutionTime = 15.81 s  ClockTime = 30 s

Time = 42

DILUPBiCGStab:  Solving for Ux, Initial residual = 0.003273301847192746, Final residual = 2.883970847292854e-11, No Iterations 12
DILUPBiCGStab:  Solving for Uy, Initial residual = 0.01390145085968364, Final residual = 9.606054408542725e-11, No Iterations 12
DILUPBiCGStab:  Solving for Uz, Initial residual = 0.3192015210188927, Final residual = 6.007415634965277e-11, No Iterations 11
GAMG:  Solving for p, Initial residual = 0.01823795620131365, Final residual = 0.0006707368068291691, No Iterations 3
time step continuity errors : sum local = 0.0002771859684600274, global = -9.777311875839055e-07, cumulative = 0.001221565066335255
DILUPBiCGStab:  Solving for omega, Initial residual = 3.638021171311131e-06, Final residual = 7.741325659262785e-11, No Iterations 5
DILUPBiCGStab:  Solving for k, Initial residual = 0.03570035272001017, Final residual = 6.606163834680306e-11, No Iterations 11
bounding k, min: 1e-16 max: 0.1711346033691689 average: 0.001479817724781798
ExecutionTime = 16.16 s  ClockTime = 31 s

Time = 43

DILUPBiCGStab:  Solving for Ux, Initial residual = 0.003273830546481936, Final residual = 7.796352777496671e-11, No Iterations 11
DILUPBiCGStab:  Solving for Uy, Initial residual = 0.01417800286538061, Final residual = 4.226881047096369e-11, No Iterations 12
DILUPBiCGStab:  Solving for Uz, Initial residual = 0.3288761561251423, Final residual = 9.131179298328193e-11, No Iterations 10
GAMG:  Solving for p, Initial residual = 0.01801528873304147, Final residual = 0.0006913863382238709, No Iterations 3
time step continuity errors : sum local = 0.0002887994015577628, global = -2.791607032390761e-06, cumulative = 0.001218773459302864
DILUPBiCGStab:  Solving for omega, Initial residual = 3.501855116157564e-06, Final residual = 7.371158601890158e-11, No Iterations 5
DILUPBiCGStab:  Solving for k, Initial residual = 0.03395130284342474, Final residual = 6.918877394211584e-11, No Iterations 11
bounding k, min: 1e-16 max: 0.1819341079175952 average: 0.001634888039925846
ExecutionTime = 16.58 s  ClockTime = 31 s

Time = 44

DILUPBiCGStab:  Solving for Ux, Initial residual = 0.00325818516110719, Final residual = 8.586140195090661e-11, No Iterations 11
DILUPBiCGStab:  Solving for Uy, Initial residual = 0.01443096662205377, Final residual = 4.92510020503094e-11, No Iterations 12
DILUPBiCGStab:  Solving for Uz, Initial residual = 0.3454055717769355, Final residual = 2.70317407863864e-11, No Iterations 11
GAMG:  Solving for p, Initial residual = 0.0176645624819902, Final residual = 0.0007085083813745337, No Iterations 3
time step continuity errors : sum local = 0.0002989052034669339, global = -4.875153059605738e-06, cumulative = 0.001213898306243258
DILUPBiCGStab:  Solving for omega, Initial residual = 3.384373564817695e-06, Final residual = 6.910913187087429e-11, No Iterations 5
DILUPBiCGStab:  Solving for k, Initial residual = 0.03231250586159841, Final residual = 6.813408685074126e-11, No Iterations 11
bounding k, min: 1e-16 max: 0.1929654821790055 average: 0.001796927609275731
ExecutionTime = 16.88 s  ClockTime = 32 s

Time = 45

DILUPBiCGStab:  Solving for Ux, Initial residual = 0.003243918546341398, Final residual = 3.04630165429552e-11, No Iterations 12
DILUPBiCGStab:  Solving for Uy, Initial residual = 0.01454379994164838, Final residual = 8.816206150279274e-11, No Iterations 12
DILUPBiCGStab:  Solving for Uz, Initial residual = 0.3486751279347353, Final residual = 2.344244655619158e-11, No Iterations 11
GAMG:  Solving for p, Initial residual = 0.01727249548260071, Final residual = 0.0007127499931789278, No Iterations 3
time step continuity errors : sum local = 0.0003033001798834318, global = -5.044867698628765e-06, cumulative = 0.001208853438544629
DILUPBiCGStab:  Solving for omega, Initial residual = 3.264501003222487e-06, Final residual = 6.77060207568065e-11, No Iterations 5
DILUPBiCGStab:  Solving for k, Initial residual = 0.03078616864550433, Final residual = 5.727598832683748e-11, No Iterations 11
bounding k, min: 1e-16 max: 0.2036436777591852 average: 0.001965824175841934
ExecutionTime = 17.18 s  ClockTime = 33 s

Time = 46

DILUPBiCGStab:  Solving for Ux, Initial residual = 0.003225277159927641, Final residual = 2.479177903519438e-11, No Iterations 12
DILUPBiCGStab:  Solving for Uy, Initial residual = 0.01463538838828985, Final residual = 1.802655704436591e-11, No Iterations 13
DILUPBiCGStab:  Solving for Uz, Initial residual = 0.3553017572310915, Final residual = 6.465188204150873e-11, No Iterations 10
GAMG:  Solving for p, Initial residual = 0.01696349312363222, Final residual = 0.0007114933972094509, No Iterations 3
time step continuity errors : sum local = 0.0003043419133636763, global = -5.776825314888938e-06, cumulative = 0.00120307661322974
DILUPBiCGStab:  Solving for omega, Initial residual = 3.161261292893935e-06, Final residual = 8.173320867293219e-11, No Iterations 5
DILUPBiCGStab:  Solving for k, Initial residual = 0.02936610529160363, Final residual = 7.676805635174821e-11, No Iterations 11
bounding k, min: 1e-16 max: 0.2138277927738727 average: 0.00214161265948578
ExecutionTime = 17.43 s  ClockTime = 33 s

Time = 47

DILUPBiCGStab:  Solving for Ux, Initial residual = 0.003204420916851648, Final residual = 2.064366773845605e-11, No Iterations 12
DILUPBiCGStab:  Solving for Uy, Initial residual = 0.01467255201424967, Final residual = 1.747224116707914e-11, No Iterations 13
DILUPBiCGStab:  Solving for Uz, Initial residual = 0.3732356730825401, Final residual = 2.10710544862813e-11, No Iterations 11
GAMG:  Solving for p, Initial residual = 0.01674720791080682, Final residual = 0.0006989529752468511, No Iterations 3
time step continuity errors : sum local = 0.000300039634574776, global = -1.563534162577957e-05, cumulative = 0.001187441271603961
DILUPBiCGStab:  Solving for omega, Initial residual = 3.068432604946705e-06, Final residual = 9.895157656563175e-11, No Iterations 5
DILUPBiCGStab:  Solving for k, Initial residual = 0.0280131196874327, Final residual = 5.16784757779258e-11, No Iterations 11
bounding k, min: 1e-16 max: 0.2233351287576263 average: 0.00232452735123128
ExecutionTime = 17.69 s  ClockTime = 34 s

Time = 48

DILUPBiCGStab:  Solving for Ux, Initial residual = 0.003173963840741746, Final residual = 9.346155906019848e-11, No Iterations 11
DILUPBiCGStab:  Solving for Uy, Initial residual = 0.01464051653385275, Final residual = 4.750279732783735e-11, No Iterations 12
DILUPBiCGStab:  Solving for Uz, Initial residual = 0.3661253447353721, Final residual = 5.67566924107898e-11, No Iterations 10
GAMG:  Solving for p, Initial residual = 0.01665299187871569, Final residual = 0.0007193332682722487, No Iterations 3
time step continuity errors : sum local = 0.0003103158967071995, global = -7.984776120102966e-06, cumulative = 0.001179456495483858
DILUPBiCGStab:  Solving for omega, Initial residual = 2.991837610487621e-06, Final residual = 4.489620144934232e-11, No Iterations 5
DILUPBiCGStab:  Solving for k, Initial residual = 0.02674184201724071, Final residual = 4.517590884617127e-11, No Iterations 11
bounding k, min: 1e-16 max: 0.2322003710967613 average: 0.002513950974086278
ExecutionTime = 18.09 s  ClockTime = 35 s

Time = 49

DILUPBiCGStab:  Solving for Ux, Initial residual = 0.003142286011075427, Final residual = 7.580085307711276e-11, No Iterations 11
DILUPBiCGStab:  Solving for Uy, Initial residual = 0.01467267424362574, Final residual = 7.292638981306904e-11, No Iterations 12
DILUPBiCGStab:  Solving for Uz, Initial residual = 0.3763340475280416, Final residual = 6.26036496626749e-11, No Iterations 10
GAMG:  Solving for p, Initial residual = 0.01678038458411283, Final residual = 0.0007298955217891371, No Iterations 3
time step continuity errors : sum local = 0.0003138166627490721, global = -1.394499702761104e-05, cumulative = 0.001165511498456247
DILUPBiCGStab:  Solving for omega, Initial residual = 2.914516192598281e-06, Final residual = 4.646836318667216e-11, No Iterations 5
DILUPBiCGStab:  Solving for k, Initial residual = 0.02551846882728782, Final residual = 4.080373598293497e-11, No Iterations 11
bounding k, min: 1e-16 max: 0.2404052328090067 average: 0.002709207205394837
ExecutionTime = 18.39 s  ClockTime = 35 s

Time = 50

DILUPBiCGStab:  Solving for Ux, Initial residual = 0.003103414211130107, Final residual = 7.599987121853162e-11, No Iterations 11
DILUPBiCGStab:  Solving for Uy, Initial residual = 0.01453809249847905, Final residual = 9.535439452935303e-11, No Iterations 12
DILUPBiCGStab:  Solving for Uz, Initial residual = 0.3943243640185352, Final residual = 5.886745123661105e-11, No Iterations 10
GAMG:  Solving for p, Initial residual = 0.01680420161579733, Final residual = 0.0007493215695563823, No Iterations 3
time step continuity errors : sum local = 0.0003224255422720576, global = -1.353684035056868e-05, cumulative = 0.001151974658105678
DILUPBiCGStab:  Solving for omega, Initial residual = 2.844699203252796e-06, Final residual = 9.36220971093074e-11, No Iterations 4
DILUPBiCGStab:  Solving for k, Initial residual = 0.0243644486693215, Final residual = 6.114794975064367e-11, No Iterations 10
bounding k, min: 1e-16 max: 0.2509536105475793 average: 0.002909331517355215
ExecutionTime = 18.72 s  ClockTime = 36 s

Time = 51

DILUPBiCGStab:  Solving for Ux, Initial residual = 0.00305241394873219, Final residual = 9.312864426515364e-11, No Iterations 11
DILUPBiCGStab:  Solving for Uy, Initial residual = 0.01441608516985373, Final residual = 4.692930822869809e-11, No Iterations 13
DILUPBiCGStab:  Solving for Uz, Initial residual = 0.3992338717950573, Final residual = 3.656203953250092e-11, No Iterations 11
GAMG:  Solving for p, Initial residual = 0.01675340109504921, Final residual = 0.000764243007099529, No Iterations 3
time step continuity errors : sum local = 0.0003283892655810289, global = -8.104171596867916e-06, cumulative = 0.00114387048650881
DILUPBiCGStab:  Solving for omega, Initial residual = 2.768670694291983e-06, Final residual = 8.876383948522017e-11, No Iterations 4
DILUPBiCGStab:  Solving for k, Initial residual = 0.02326731943056019, Final residual = 4.55409026237526e-11, No Iterations 10
bounding k, min: 1e-16 max: 0.2617694111857216 average: 0.003113682060728454
ExecutionTime = 19.12 s  ClockTime = 37 s

Time = 52

DILUPBiCGStab:  Solving for Ux, Initial residual = 0.002990098802860058, Final residual = 8.851594799520395e-11, No Iterations 11
DILUPBiCGStab:  Solving for Uy, Initial residual = 0.01418706468745976, Final residual = 2.667144994400526e-12, No Iterations 14
DILUPBiCGStab:  Solving for Uz, Initial residual = 0.4182552791373252, Final residual = 4.717038757282773e-11, No Iterations 11
GAMG:  Solving for p, Initial residual = 0.01646257826463848, Final residual = 0.0007695240194713431, No Iterations 3
time step continuity errors : sum local = 0.0003309422519135536, global = -7.959459806696308e-06, cumulative = 0.001135911026702114
DILUPBiCGStab:  Solving for omega, Initial residual = 2.695865355288989e-06, Final residual = 8.551186188809172e-11, No Iterations 4
DILUPBiCGStab:  Solving for k, Initial residual = 0.02223997229722068, Final residual = 9.464116227742827e-11, No Iterations 10
bounding k, min: 1e-16 max: 0.2722816461469763 average: 0.003322052483809438
ExecutionTime = 19.56 s  ClockTime = 37 s

Time = 53

DILUPBiCGStab:  Solving for Ux, Initial residual = 0.002920828035824527, Final residual = 5.123321794564045e-11, No Iterations 11
DILUPBiCGStab:  Solving for Uy, Initial residual = 0.01387477114572489, Final residual = 5.913989181505608e-11, No Iterations 13
DILUPBiCGStab:  Solving for Uz, Initial residual = 0.4113094998628948, Final residual = 7.947322800021639e-11, No Iterations 10
GAMG:  Solving for p, Initial residual = 0.01599444391095069, Final residual = 0.0007783380728459769, No Iterations 3
time step continuity errors : sum local = 0.000334325260904888, global = 1.074813638303107e-06, cumulative = 0.001136985840340417
DILUPBiCGStab:  Solving for omega, Initial residual = 2.61282438568007e-06, Final residual = 8.332029434437207e-11, No Iterations 4
DILUPBiCGStab:  Solving for k, Initial residual = 0.02126715980047955, Final residual = 9.062764817026911e-11, No Iterations 10
bounding k, min: 1e-16 max: 0.2825373434621941 average: 0.003533987447387285
ExecutionTime = 19.92 s  ClockTime = 38 s

Time = 54

DILUPBiCGStab:  Solving for Ux, Initial residual = 0.002840923689734065, Final residual = 6.916859151644466e-11, No Iterations 11
DILUPBiCGStab:  Solving for Uy, Initial residual = 0.01350809184367014, Final residual = 6.531325224775421e-11, No Iterations 12
DILUPBiCGStab:  Solving for Uz, Initial residual = 0.4311702316453131, Final residual = 2.558735466172905e-11, No Iterations 11
GAMG:  Solving for p, Initial residual = 0.01544000619064405, Final residual = 0.0007614993915461651, No Iterations 3
time step continuity errors : sum local = 0.0003263997421157613, global = -5.300910159276251e-07, cumulative = 0.00113645574932449
DILUPBiCGStab:  Solving for omega, Initial residual = 2.519561578437321e-06, Final residual = 8.028250098156441e-11, No Iterations 4
DILUPBiCGStab:  Solving for k, Initial residual = 0.02035009716496626, Final residual = 9.393740016690744e-11, No Iterations 10
bounding k, min: 1e-16 max: 0.2923584883478669 average: 0.00374931092357386
ExecutionTime = 20.32 s  ClockTime = 38 s

Time = 55

DILUPBiCGStab:  Solving for Ux, Initial residual = 0.002747918902192363, Final residual = 4.980618981777582e-11, No Iterations 11
DILUPBiCGStab:  Solving for Uy, Initial residual = 0.01299175837857688, Final residual = 5.797185170929861e-11, No Iterations 12
DILUPBiCGStab:  Solving for Uz, Initial residual = 0.4399629753366802, Final residual = 2.927833953551984e-11, No Iterations 11
GAMG:  Solving for p, Initial residual = 0.01461233971161564, Final residual = 0.0004716239827120303, No Iterations 4
time step continuity errors : sum local = 0.0002027392191603789, global = 4.407116340505481e-06, cumulative = 0.001140862865664995
DILUPBiCGStab:  Solving for omega, Initial residual = 2.426930508302412e-06, Final residual = 7.550938762385614e-11, No Iterations 4
DILUPBiCGStab:  Solving for k, Initial residual = 0.01947829877976967, Final residual = 9.767404949161373e-11, No Iterations 10
bounding k, min: 1e-16 max: 0.3017869191933446 average: 0.00396810934108017
ExecutionTime = 20.69 s  ClockTime = 39 s

Time = 56

DILUPBiCGStab:  Solving for Ux, Initial residual = 0.002611180615692378, Final residual = 3.995914891363835e-11, No Iterations 11
DILUPBiCGStab:  Solving for Uy, Initial residual = 0.01192323988648415, Final residual = 4.128005851314065e-11, No Iterations 12
DILUPBiCGStab:  Solving for Uz, Initial residual = 0.4698180715964579, Final residual = 6.634611630406954e-11, No Iterations 10
GAMG:  Solving for p, Initial residual = 0.01360168970305501, Final residual = 0.0005264334820238096, No Iterations 3
time step continuity errors : sum local = 0.0002358537923501987, global = 4.631503538713255e-06, cumulative = 0.001145494369203709
DILUPBiCGStab:  Solving for omega, Initial residual = 2.311868914222925e-06, Final residual = 7.273581804581852e-11, No Iterations 4
DILUPBiCGStab:  Solving for k, Initial residual = 0.01866639478331292, Final residual = 7.882570330731172e-11, No Iterations 10
bounding k, min: 1e-16 max: 0.3108767216228537 average: 0.004189489844085644
ExecutionTime = 21.07 s  ClockTime = 40 s

Time = 57

DILUPBiCGStab:  Solving for Ux, Initial residual = 0.002480771859062111, Final residual = 3.002642429888799e-11, No Iterations 11
DILUPBiCGStab:  Solving for Uy, Initial residual = 0.01205619451829669, Final residual = 6.562441960110792e-11, No Iterations 12
DILUPBiCGStab:  Solving for Uz, Initial residual = 0.435297510748197, Final residual = 5.851653618157921e-11, No Iterations 10
GAMG:  Solving for p, Initial residual = 0.01295644868054861, Final residual = 0.0005695504060699446, No Iterations 3
time step continuity errors : sum local = 0.0002511671700524309, global = -2.051115507360832e-06, cumulative = 0.001143443253696348
DILUPBiCGStab:  Solving for omega, Initial residual = 2.207489562578386e-06, Final residual = 6.273987160045333e-11, No Iterations 4
DILUPBiCGStab:  Solving for k, Initial residual = 0.01789440307892075, Final residual = 7.45710486557877e-11, No Iterations 10
bounding k, min: 1e-16 max: 0.3196556404947226 average: 0.004412101396021133
ExecutionTime = 21.42 s  ClockTime = 40 s

Time = 58

DILUPBiCGStab:  Solving for Ux, Initial residual = 0.002411416517404111, Final residual = 2.611716213778492e-11, No Iterations 11
DILUPBiCGStab:  Solving for Uy, Initial residual = 0.01155347694185513, Final residual = 4.888132959253963e-11, No Iterations 12
DILUPBiCGStab:  Solving for Uz, Initial residual = 0.4265285470238883, Final residual = 8.347602931274906e-11, No Iterations 10
GAMG:  Solving for p, Initial residual = 0.01219119940427896, Final residual = 0.0005451057912874992, No Iterations 3
time step continuity errors : sum local = 0.0002372040065475257, global = -1.18103855545175e-06, cumulative = 0.001142262215140896
DILUPBiCGStab:  Solving for omega, Initial residual = 2.09352249776861e-06, Final residual = 6.101453408958865e-11, No Iterations 4
DILUPBiCGStab:  Solving for k, Initial residual = 0.01717389684731908, Final residual = 8.008437205783143e-11, No Iterations 10
bounding k, min: 1e-16 max: 0.3281496313545901 average: 0.004635797491316336
ExecutionTime = 21.82 s  ClockTime = 41 s

Time = 59

DILUPBiCGStab:  Solving for Ux, Initial residual = 0.002328214233218781, Final residual = 2.365061300571875e-11, No Iterations 11
DILUPBiCGStab:  Solving for Uy, Initial residual = 0.01105702146368284, Final residual = 4.695244586716183e-11, No Iterations 12
DILUPBiCGStab:  Solving for Uz, Initial residual = 0.4179043775858579, Final residual = 7.32411109004592e-11, No Iterations 10
GAMG:  Solving for p, Initial residual = 0.01129140428200106, Final residual = 0.0005345349830680853, No Iterations 3
time step continuity errors : sum local = 0.0002304482788993286, global = 3.289600336298796e-06, cumulative = 0.001145551815477195
DILUPBiCGStab:  Solving for omega, Initial residual = 1.989540209855339e-06, Final residual = 5.503962016608033e-11, No Iterations 4
DILUPBiCGStab:  Solving for k, Initial residual = 0.01649937045025786, Final residual = 9.016652646604521e-11, No Iterations 10
bounding k, min: 1e-16 max: 0.3362914188650433 average: 0.004859734416309297
ExecutionTime = 22.09 s  ClockTime = 42 s

Time = 60

DILUPBiCGStab:  Solving for Ux, Initial residual = 0.002230248035520875, Final residual = 2.276164753012552e-11, No Iterations 11
DILUPBiCGStab:  Solving for Uy, Initial residual = 0.01055636471850258, Final residual = 3.239533932778803e-11, No Iterations 12
DILUPBiCGStab:  Solving for Uz, Initial residual = 0.4186390111256951, Final residual = 3.045869431798116e-11, No Iterations 11
GAMG:  Solving for p, Initial residual = 0.01047470452467483, Final residual = 0.0005177700270806311, No Iterations 3
time step continuity errors : sum local = 0.00022253852881505, global = -7.671872817267296e-07, cumulative = 0.001144784628195468
DILUPBiCGStab:  Solving for omega, Initial residual = 1.885271044638402e-06, Final residual = 5.183224719236741e-11, No Iterations 4
DILUPBiCGStab:  Solving for k, Initial residual = 0.01587151722654221, Final residual = 9.66167331342875e-11, No Iterations 10
bounding k, min: 1e-16 max: 0.3438933088656453 average: 0.005083388805638081
ExecutionTime = 22.47 s  ClockTime = 43 s

Time = 61

DILUPBiCGStab:  Solving for Ux, Initial residual = 0.002135129893532444, Final residual = 2.458213547200247e-11, No Iterations 11
DILUPBiCGStab:  Solving for Uy, Initial residual = 0.009901346250649487, Final residual = 1.855669909088059e-11, No Iterations 12
DILUPBiCGStab:  Solving for Uz, Initial residual = 0.4295627102466623, Final residual = 3.774944634437216e-11, No Iterations 11
GAMG:  Solving for p, Initial residual = 0.009652404320648589, Final residual = 0.0004604160839854054, No Iterations 3
time step continuity errors : sum local = 0.000199072319572392, global = 8.627978887819719e-07, cumulative = 0.00114564742608425
DILUPBiCGStab:  Solving for omega, Initial residual = 1.797209535862758e-06, Final residual = 3.527462094301571e-11, No Iterations 4
DILUPBiCGStab:  Solving for k, Initial residual = 0.01528707701048374, Final residual = 3.958050055741956e-11, No Iterations 10
bounding k, min: 1e-16 max: 0.3509238148219739 average: 0.005305676617420545
ExecutionTime = 22.91 s  ClockTime = 43 s

Time = 62

DILUPBiCGStab:  Solving for Ux, Initial residual = 0.002039736809922471, Final residual = 2.836362236360945e-11, No Iterations 11
DILUPBiCGStab:  Solving for Uy, Initial residual = 0.009480056497227773, Final residual = 7.29994068526825e-11, No Iterations 11
DILUPBiCGStab:  Solving for Uz, Initial residual = 0.4193788952132066, Final residual = 3.385770429043091e-11, No Iterations 11
GAMG:  Solving for p, Initial residual = 0.008965061160350739, Final residual = 0.0004245481852810372, No Iterations 3
time step continuity errors : sum local = 0.0001847969628941163, global = 1.774814937349109e-06, cumulative = 0.001147422241021599
DILUPBiCGStab:  Solving for omega, Initial residual = 1.717862624543444e-06, Final residual = 4.020803982576212e-11, No Iterations 4
DILUPBiCGStab:  Solving for k, Initial residual = 0.01473791432059947, Final residual = 3.801357964422874e-11, No Iterations 10
bounding k, min: 1e-16 max: 0.3578142562081546 average: 0.005525967988161357
ExecutionTime = 23.23 s  ClockTime = 44 s

Time = 63

DILUPBiCGStab:  Solving for Ux, Initial residual = 0.001958322279714905, Final residual = 3.244779314041009e-11, No Iterations 11
DILUPBiCGStab:  Solving for Uy, Initial residual = 0.009000718538357723, Final residual = 1.501521776328282e-11, No Iterations 12
DILUPBiCGStab:  Solving for Uz, Initial residual = 0.4295085103439971, Final residual = 7.262240840936233e-11, No Iterations 10
GAMG:  Solving for p, Initial residual = 0.00829238508973857, Final residual = 0.000392867879489301, No Iterations 3
time step continuity errors : sum local = 0.0001718798968630831, global = 2.177472478098146e-06, cumulative = 0.001149599713499697
DILUPBiCGStab:  Solving for omega, Initial residual = 1.655073068701323e-06, Final residual = 3.926137920138298e-11, No Iterations 4
DILUPBiCGStab:  Solving for k, Initial residual = 0.01422154410568044, Final residual = 9.256058323079439e-11, No Iterations 10
bounding k, min: 1e-16 max: 0.3647556338566332 average: 0.005743469705967304
ExecutionTime = 23.53 s  ClockTime = 45 s

Time = 64

DILUPBiCGStab:  Solving for Ux, Initial residual = 0.001897506173294415, Final residual = 3.412164055688507e-11, No Iterations 11
DILUPBiCGStab:  Solving for Uy, Initial residual = 0.008630214673597952, Final residual = 3.890598806954509e-11, No Iterations 11
DILUPBiCGStab:  Solving for Uz, Initial residual = 0.4224598789972658, Final residual = 7.918299778703535e-11, No Iterations 10
GAMG:  Solving for p, Initial residual = 0.007769024156640974, Final residual = 0.0003724149773256169, No Iterations 3
time step continuity errors : sum local = 0.0001630545866107571, global = 3.220400185298342e-06, cumulative = 0.001152820113684995
DILUPBiCGStab:  Solving for omega, Initial residual = 1.604380371351134e-06, Final residual = 2.904957632395542e-11, No Iterations 4
DILUPBiCGStab:  Solving for k, Initial residual = 0.01373464170809442, Final residual = 7.862953002109863e-11, No Iterations 10
bounding k, min: 1e-16 max: 0.371752794236988 average: 0.00595740415497746
ExecutionTime = 23.89 s  ClockTime = 46 s

Time = 65

DILUPBiCGStab:  Solving for Ux, Initial residual = 0.001849955395337997, Final residual = 4.924205465283414e-11, No Iterations 10
DILUPBiCGStab:  Solving for Uy, Initial residual = 0.008308069032979828, Final residual = 7.582293037448665e-11, No Iterations 11
DILUPBiCGStab:  Solving for Uz, Initial residual = 0.4192390654369368, Final residual = 8.965378628522623e-11, No Iterations 11
GAMG:  Solving for p, Initial residual = 0.007183359079984806, Final residual = 0.0001939746089889474, No Iterations 4
time step continuity errors : sum local = 8.480633008904822e-05, global = 5.457415855017815e-06, cumulative = 0.001158277529540013
DILUPBiCGStab:  Solving for omega, Initial residual = 1.568856288089905e-06, Final residual = 2.698976457051787e-11, No Iterations 4
DILUPBiCGStab:  Solving for k, Initial residual = 0.01327738610810221, Final residual = 6.813271989447181e-11, No Iterations 10
bounding k, min: 1e-16 max: 0.3788772420587587 average: 0.006167449274718628
ExecutionTime = 24.22 s  ClockTime = 46 s

Time = 66

DILUPBiCGStab:  Solving for Ux, Initial residual = 0.001837704045966875, Final residual = 4.284799737799003e-11, No Iterations 10
DILUPBiCGStab:  Solving for Uy, Initial residual = 0.007992940514222032, Final residual = 6.763246635932277e-11, No Iterations 11
DILUPBiCGStab:  Solving for Uz, Initial residual = 0.4189367059735826, Final residual = 4.698678787700914e-11, No Iterations 11
GAMG:  Solving for p, Initial residual = 0.006728787967351669, Final residual = 0.0002887396616413319, No Iterations 3
time step continuity errors : sum local = 0.0001260950351648212, global = -4.756059285202841e-06, cumulative = 0.00115352147025481
DILUPBiCGStab:  Solving for omega, Initial residual = 1.542947223294005e-06, Final residual = 2.854436779792874e-11, No Iterations 4
DILUPBiCGStab:  Solving for k, Initial residual = 0.01284931674235995, Final residual = 8.746799709325231e-11, No Iterations 9
bounding k, min: 1e-16 max: 0.3862916474081385 average: 0.006372401423718101
ExecutionTime = 24.57 s  ClockTime = 47 s

Time = 67

DILUPBiCGStab:  Solving for Ux, Initial residual = 0.001776876787522364, Final residual = 9.41932953514282e-11, No Iterations 10
DILUPBiCGStab:  Solving for Uy, Initial residual = 0.007730321455124421, Final residual = 8.403471568952964e-11, No Iterations 11
DILUPBiCGStab:  Solving for Uz, Initial residual = 0.4190999970769487, Final residual = 5.841317837382279e-11, No Iterations 11
GAMG:  Solving for p, Initial residual = 0.006302191033416763, Final residual = 0.0001653388422778953, No Iterations 4
time step continuity errors : sum local = 7.161964524580331e-05, global = -6.386417229368398e-06, cumulative = 0.001147135053025442
DILUPBiCGStab:  Solving for omega, Initial residual = 1.536818875417253e-06, Final residual = 3.224133465655033e-11, No Iterations 4
DILUPBiCGStab:  Solving for k, Initial residual = 0.01244308860616034, Final residual = 7.567155790007191e-11, No Iterations 9
bounding k, min: 1e-16 max: 0.3942971808345526 average: 0.006571709834710045
ExecutionTime = 24.9 s  ClockTime = 47 s

Time = 68

DILUPBiCGStab:  Solving for Ux, Initial residual = 0.00179432515636016, Final residual = 7.837331964630936e-11, No Iterations 10
DILUPBiCGStab:  Solving for Uy, Initial residual = 0.007473432217074083, Final residual = 8.295293641891369e-11, No Iterations 11
DILUPBiCGStab:  Solving for Uz, Initial residual = 0.4276277206570886, Final residual = 5.525404286687837e-11, No Iterations 11
GAMG:  Solving for p, Initial residual = 0.006113508775187951, Final residual = 0.0002771340588634492, No Iterations 3
time step continuity errors : sum local = 0.0001184281054126486, global = -8.567111104255983e-06, cumulative = 0.001138567941921186
DILUPBiCGStab:  Solving for omega, Initial residual = 1.526277710817932e-06, Final residual = 2.943757384278465e-11, No Iterations 4
DILUPBiCGStab:  Solving for k, Initial residual = 0.01205453703552848, Final residual = 6.741339164583051e-11, No Iterations 9
bounding k, min: 1e-16 max: 0.4022519180230775 average: 0.006764698088195275
ExecutionTime = 25.24 s  ClockTime = 48 s

Time = 69

DILUPBiCGStab:  Solving for Ux, Initial residual = 0.001743324232584827, Final residual = 7.271203077248081e-11, No Iterations 10
DILUPBiCGStab:  Solving for Uy, Initial residual = 0.007212231916365284, Final residual = 5.907792843817843e-11, No Iterations 11
DILUPBiCGStab:  Solving for Uz, Initial residual = 0.4362691497153732, Final residual = 7.066210677280657e-11, No Iterations 11
GAMG:  Solving for p, Initial residual = 0.005671903458584317, Final residual = 0.0001708752281607386, No Iterations 4
time step continuity errors : sum local = 7.243610406904361e-05, global = -1.386654216978447e-05, cumulative = 0.001124701399751402
DILUPBiCGStab:  Solving for omega, Initial residual = 1.527142248906413e-06, Final residual = 8.294417092494262e-11, No Iterations 4
DILUPBiCGStab:  Solving for k, Initial residual = 0.01168352507640882, Final residual = 8.237820008939937e-11, No Iterations 9
bounding k, min: 1e-16 max: 0.409963127910249 average: 0.006950950588914761
ExecutionTime = 25.58 s  ClockTime = 49 s

Time = 70

DILUPBiCGStab:  Solving for Ux, Initial residual = 0.001763969750870792, Final residual = 9.553570094040004e-11, No Iterations 10
DILUPBiCGStab:  Solving for Uy, Initial residual = 0.007071846866016871, Final residual = 5.213420406073432e-11, No Iterations 11
DILUPBiCGStab:  Solving for Uz, Initial residual = 0.434247912454962, Final residual = 9.461175504884934e-11, No Iterations 11
GAMG:  Solving for p, Initial residual = 0.005512863372301649, Final residual = 0.0002540099006810394, No Iterations 3
time step continuity errors : sum local = 0.0001069198318617084, global = -7.549341134831833e-06, cumulative = 0.00111715205861657
DILUPBiCGStab:  Solving for omega, Initial residual = 1.520197214433275e-06, Final residual = 7.307462404003047e-11, No Iterations 4
DILUPBiCGStab:  Solving for k, Initial residual = 0.01132534707554898, Final residual = 5.447351042852153e-11, No Iterations 10
bounding k, min: 1e-16 max: 0.4172764315786646 average: 0.007130497723730723
ExecutionTime = 25.92 s  ClockTime = 50 s

Time = 71

DILUPBiCGStab:  Solving for Ux, Initial residual = 0.001718574841643416, Final residual = 4.208408554023151e-11, No Iterations 10
DILUPBiCGStab:  Solving for Uy, Initial residual = 0.00698613299335795, Final residual = 5.487001791037456e-11, No Iterations 11
DILUPBiCGStab:  Solving for Uz, Initial residual = 0.4256598875898918, Final residual = 1.461536184818957e-11, No Iterations 12
GAMG:  Solving for p, Initial residual = 0.005157696926053506, Final residual = 0.0001581170751803659, No Iterations 4
time step continuity errors : sum local = 6.608258073446393e-05, global = -9.713753674182666e-06, cumulative = 0.001107438304942387
DILUPBiCGStab:  Solving for omega, Initial residual = 1.523908049744025e-06, Final residual = 7.64135202464538e-11, No Iterations 4
DILUPBiCGStab:  Solving for k, Initial residual = 0.01098112771255937, Final residual = 6.867884515571471e-11, No Iterations 10
bounding k, min: 1e-16 max: 0.4241097528833214 average: 0.007303301916043481
ExecutionTime = 26.29 s  ClockTime = 50 s

Time = 72

DILUPBiCGStab:  Solving for Ux, Initial residual = 0.001732672796717322, Final residual = 5.293039964165113e-11, No Iterations 10
DILUPBiCGStab:  Solving for Uy, Initial residual = 0.007045653129320586, Final residual = 6.334302669399251e-11, No Iterations 12
DILUPBiCGStab:  Solving for Uz, Initial residual = 0.4192780205849591, Final residual = 5.032122966373888e-11, No Iterations 11
GAMG:  Solving for p, Initial residual = 0.005036103362627625, Final residual = 0.0002286685691902658, No Iterations 3
time step continuity errors : sum local = 9.518814032472281e-05, global = -8.325165006846178e-06, cumulative = 0.001099113139935541
DILUPBiCGStab:  Solving for omega, Initial residual = 1.518992859955124e-06, Final residual = 8.482065109432818e-11, No Iterations 4
DILUPBiCGStab:  Solving for k, Initial residual = 0.01064572290396833, Final residual = 8.47520369801631e-11, No Iterations 10
bounding k, min: 1e-16 max: 0.4304602398268242 average: 0.007469873766559135
ExecutionTime = 26.8 s  ClockTime = 51 s

Time = 73

DILUPBiCGStab:  Solving for Ux, Initial residual = 0.001696811251715804, Final residual = 6.09942641012462e-11, No Iterations 10
DILUPBiCGStab:  Solving for Uy, Initial residual = 0.007067850594196401, Final residual = 4.290197186867072e-11, No Iterations 11
DILUPBiCGStab:  Solving for Uz, Initial residual = 0.4188699001193938, Final residual = 8.394641712671391e-11, No Iterations 10
GAMG:  Solving for p, Initial residual = 0.004797928004644154, Final residual = 0.0001600754819169619, No Iterations 4
time step continuity errors : sum local = 6.624203231505145e-05, global = -2.757585607379e-06, cumulative = 0.001096355554328162
DILUPBiCGStab:  Solving for omega, Initial residual = 1.518500137023794e-06, Final residual = 9.481110045790376e-11, No Iterations 4
DILUPBiCGStab:  Solving for k, Initial residual = 0.01032083893472418, Final residual = 3.68636047642562e-11, No Iterations 10
bounding k, min: 1e-16 max: 0.4362781940569082 average: 0.007630438202203177
ExecutionTime = 27.1 s  ClockTime = 52 s

Time = 74

DILUPBiCGStab:  Solving for Ux, Initial residual = 0.001703849176044925, Final residual = 7.417663588808359e-11, No Iterations 10
DILUPBiCGStab:  Solving for Uy, Initial residual = 0.007112570648372417, Final residual = 9.919446751922193e-11, No Iterations 11
DILUPBiCGStab:  Solving for Uz, Initial residual = 0.426966005103091, Final residual = 6.033166422114811e-11, No Iterations 11
GAMG:  Solving for p, Initial residual = 0.004713220827106715, Final residual = 0.0002241596305753726, No Iterations 3
time step continuity errors : sum local = 9.234827894189514e-05, global = -8.453835619851673e-06, cumulative = 0.00108790171870831
DILUPBiCGStab:  Solving for omega, Initial residual = 1.511532104963639e-06, Final residual = 4.66473315470696e-11, No Iterations 4
DILUPBiCGStab:  Solving for k, Initial residual = 0.01000454760861308, Final residual = 4.366203480854934e-11, No Iterations 10
bounding k, min: 1e-16 max: 0.4416448520597632 average: 0.00778573947958213
ExecutionTime = 27.49 s  ClockTime = 52 s

Time = 75

DILUPBiCGStab:  Solving for Ux, Initial residual = 0.001675470519524025, Final residual = 8.362712692954043e-11, No Iterations 10
DILUPBiCGStab:  Solving for Uy, Initial residual = 0.007163068509924728, Final residual = 8.797536109422724e-11, No Iterations 11
DILUPBiCGStab:  Solving for Uz, Initial residual = 0.4235880408371926, Final residual = 8.846469023015201e-11, No Iterations 11
GAMG:  Solving for p, Initial residual = 0.004565253372819055, Final residual = 0.0001756621101407697, No Iterations 4
time step continuity errors : sum local = 7.194259651609643e-05, global = -1.177184392475989e-06, cumulative = 0.001086724534315834
DILUPBiCGStab:  Solving for omega, Initial residual = 1.506042103926801e-06, Final residual = 4.9664328404646e-11, No Iterations 4
DILUPBiCGStab:  Solving for k, Initial residual = 0.009698699456447165, Final residual = 4.960153224959579e-11, No Iterations 10
bounding k, min: 1e-16 max: 0.4466012694312723 average: 0.007936141879468903
ExecutionTime = 27.85 s  ClockTime = 53 s

Time = 76

DILUPBiCGStab:  Solving for Ux, Initial residual = 0.00167614219858349, Final residual = 5.424428184019169e-11, No Iterations 11
DILUPBiCGStab:  Solving for Uy, Initial residual = 0.007191191899892023, Final residual = 7.454116199189251e-11, No Iterations 11
DILUPBiCGStab:  Solving for Uz, Initial residual = 0.4268475275006281, Final residual = 2.62447355639006e-11, No Iterations 12
GAMG:  Solving for p, Initial residual = 0.004492929229513565, Final residual = 0.0001443378588126411, No Iterations 4
time step continuity errors : sum local = 5.877355574794629e-05, global = -2.580562858818421e-06, cumulative = 0.001084143971457016
[...]
DILUPBiCGStab:  Solving for k, Initial residual = 5.532206828104016e-08, Final residual = 8.646631299534553e-11, No Iterations 3
bounding k, min: 1e-16 max: 0.560196782758754 average: 0.01274230695415881
ExecutionTime = 377.8 s  ClockTime = 703 s

Time = 1033

DILUPBiCGStab:  Solving for Ux, Initial residual = 1.777891349689899e-07, Final residual = 5.441816990688401e-11, No Iterations 4
DILUPBiCGStab:  Solving for Uy, Initial residual = 5.247410406655697e-07, Final residual = 8.264537944851122e-11, No Iterations 5
DILUPBiCGStab:  Solving for Uz, Initial residual = 0.3054958655284095, Final residual = 7.328597427516448e-11, No Iterations 11
GAMG:  Solving for p, Initial residual = 1.164589727861596e-07, Final residual = 5.535463583710405e-09, No Iterations 7
time step continuity errors : sum local = 1.419933687521325e-09, global = -1.743387041249721e-10, cumulative = 0.001086750816303152
DILUPBiCGStab:  Solving for omega, Initial residual = 1.360014203907971e-10, Final residual = 2.941139688498583e-12, No Iterations 1
DILUPBiCGStab:  Solving for k, Initial residual = 5.491763504132633e-08, Final residual = 8.590244999698003e-11, No Iterations 3
bounding k, min: 1e-16 max: 0.5601967282631445 average: 0.01274230646396736
ExecutionTime = 378.27 s  ClockTime = 704 s

Time = 1034

DILUPBiCGStab:  Solving for Ux, Initial residual = 1.763585792163619e-07, Final residual = 5.417439532098659e-11, No Iterations 4
DILUPBiCGStab:  Solving for Uy, Initial residual = 5.114247767219136e-07, Final residual = 8.01162641541547e-11, No Iterations 5
DILUPBiCGStab:  Solving for Uz, Initial residual = 0.2975469423860629, Final residual = 6.434219379025027e-11, No Iterations 12
GAMG:  Solving for p, Initial residual = 1.159950086351994e-07, Final residual = 5.484522311953829e-09, No Iterations 7
time step continuity errors : sum local = 1.406868018962601e-09, global = -2.131096741747596e-10, cumulative = 0.001086750603193478
DILUPBiCGStab:  Solving for omega, Initial residual = 1.345203612294666e-10, Final residual = 2.91446740238716e-12, No Iterations 1
DILUPBiCGStab:  Solving for k, Initial residual = 5.449414721476255e-08, Final residual = 8.546109122140308e-11, No Iterations 3
bounding k, min: 1e-16 max: 0.5601966741570593 average: 0.01274230597769224
ExecutionTime = 378.68 s  ClockTime = 705 s

Time = 1035

DILUPBiCGStab:  Solving for Ux, Initial residual = 1.745715150235563e-07, Final residual = 5.312261432862504e-11, No Iterations 4
DILUPBiCGStab:  Solving for Uy, Initial residual = 5.145369228149249e-07, Final residual = 8.044185609012265e-11, No Iterations 5
DILUPBiCGStab:  Solving for Uz, Initial residual = 0.2984264797115362, Final residual = 6.400595997027275e-11, No Iterations 11
GAMG:  Solving for p, Initial residual = 1.171372068282285e-07, Final residual = 5.3219167372669e-09, No Iterations 7
time step continuity errors : sum local = 1.365149794033106e-09, global = -1.77068164536486e-10, cumulative = 0.001086750426125313
DILUPBiCGStab:  Solving for omega, Initial residual = 1.330516445117364e-10, Final residual = 2.887632710253948e-12, No Iterations 1
DILUPBiCGStab:  Solving for k, Initial residual = 5.409684868247942e-08, Final residual = 8.497033556069877e-11, No Iterations 3
bounding k, min: 1e-16 max: 0.5601966203236304 average: 0.01274230549723986
ExecutionTime = 378.97 s  ClockTime = 705 s

Time = 1036

DILUPBiCGStab:  Solving for Ux, Initial residual = 1.730863532836486e-07, Final residual = 5.283650949360816e-11, No Iterations 4
DILUPBiCGStab:  Solving for Uy, Initial residual = 5.063864804106243e-07, Final residual = 7.94880943243416e-11, No Iterations 5
DILUPBiCGStab:  Solving for Uz, Initial residual = 0.3062625257070953, Final residual = 9.85496140007519e-11, No Iterations 11
GAMG:  Solving for p, Initial residual = 1.113912667166581e-07, Final residual = 4.356400421016446e-09, No Iterations 8
time step continuity errors : sum local = 1.117480342510728e-09, global = -1.135944063775548e-10, cumulative = 0.001086750312530907
DILUPBiCGStab:  Solving for omega, Initial residual = 1.316019358860728e-10, Final residual = 2.86129878431121e-12, No Iterations 1
DILUPBiCGStab:  Solving for k, Initial residual = 5.366513418927068e-08, Final residual = 8.435012827500416e-11, No Iterations 3
bounding k, min: 1e-16 max: 0.5601965668584037 average: 0.01274230502127133
ExecutionTime = 379.23 s  ClockTime = 706 s

Time = 1037

DILUPBiCGStab:  Solving for Ux, Initial residual = 1.713879967307336e-07, Final residual = 5.208087316797292e-11, No Iterations 4
DILUPBiCGStab:  Solving for Uy, Initial residual = 5.021192134786925e-07, Final residual = 7.795091831648663e-11, No Iterations 5
DILUPBiCGStab:  Solving for Uz, Initial residual = 0.3195275045994328, Final residual = 4.386226818054212e-11, No Iterations 12
GAMG:  Solving for p, Initial residual = 1.164468085434969e-07, Final residual = 5.704149567585355e-09, No Iterations 6
time step continuity errors : sum local = 1.463197617720625e-09, global = -1.518263616717102e-10, cumulative = 0.001086750160704545
DILUPBiCGStab:  Solving for omega, Initial residual = 1.301637028752845e-10, Final residual = 2.835704875464974e-12, No Iterations 1
DILUPBiCGStab:  Solving for k, Initial residual = 5.329147124995677e-08, Final residual = 8.407556392385419e-11, No Iterations 3
bounding k, min: 1e-16 max: 0.5601965136869004 average: 0.01274230455049164
ExecutionTime = 379.55 s  ClockTime = 706 s

Time = 1038

DILUPBiCGStab:  Solving for Ux, Initial residual = 1.698066875332297e-07, Final residual = 5.130066362602002e-11, No Iterations 4
DILUPBiCGStab:  Solving for Uy, Initial residual = 5.049464485359766e-07, Final residual = 7.951054356423546e-11, No Iterations 5
DILUPBiCGStab:  Solving for Uz, Initial residual = 0.3151541148014222, Final residual = 7.683168207241578e-11, No Iterations 11
GAMG:  Solving for p, Initial residual = 1.075874955905696e-07, Final residual = 4.053249825637639e-09, No Iterations 8
time step continuity errors : sum local = 1.039716276629856e-09, global = -1.226683868737746e-10, cumulative = 0.001086750038036158
DILUPBiCGStab:  Solving for omega, Initial residual = 1.287473356686117e-10, Final residual = 2.809594577300108e-12, No Iterations 1
DILUPBiCGStab:  Solving for k, Initial residual = 5.287167529091534e-08, Final residual = 8.334469506901987e-11, No Iterations 3
bounding k, min: 1e-16 max: 0.5601964608441176 average: 0.01274230408456714
ExecutionTime = 379.87 s  ClockTime = 707 s

Time = 1039

DILUPBiCGStab:  Solving for Ux, Initial residual = 1.683482659968464e-07, Final residual = 5.081284299991654e-11, No Iterations 4
DILUPBiCGStab:  Solving for Uy, Initial residual = 4.904572204374549e-07, Final residual = 7.533817703302229e-11, No Iterations 5
DILUPBiCGStab:  Solving for Uz, Initial residual = 0.316273883419581, Final residual = 6.624407868103134e-11, No Iterations 11
GAMG:  Solving for p, Initial residual = 1.183017232812356e-07, Final residual = 5.33257156363806e-09, No Iterations 6
time step continuity errors : sum local = 1.367882313917627e-09, global = -1.180321706748403e-10, cumulative = 0.001086749920003988
DILUPBiCGStab:  Solving for omega, Initial residual = 1.27338165627809e-10, Final residual = 2.784352414226207e-12, No Iterations 1
DILUPBiCGStab:  Solving for k, Initial residual = 5.24986105240363e-08, Final residual = 8.313950630803745e-11, No Iterations 3
bounding k, min: 1e-16 max: 0.5601964083329614 average: 0.01274230362216906
ExecutionTime = 380.18 s  ClockTime = 707 s

Time = 1040

DILUPBiCGStab:  Solving for Ux, Initial residual = 1.666693881645837e-07, Final residual = 4.997720220456803e-11, No Iterations 4
DILUPBiCGStab:  Solving for Uy, Initial residual = 5.002656495515399e-07, Final residual = 7.884377642794498e-11, No Iterations 5
DILUPBiCGStab:  Solving for Uz, Initial residual = 0.31834067098122, Final residual = 8.27227778139007e-11, No Iterations 11
GAMG:  Solving for p, Initial residual = 1.053054862942893e-07, Final residual = 3.911583173735091e-09, No Iterations 8
time step continuity errors : sum local = 1.003379850140296e-09, global = -1.191359738914177e-10, cumulative = 0.001086749800868014
DILUPBiCGStab:  Solving for omega, Initial residual = 1.259525338052167e-10, Final residual = 2.758751986412493e-12, No Iterations 1
DILUPBiCGStab:  Solving for k, Initial residual = 5.2090652054836e-08, Final residual = 8.236462302033417e-11, No Iterations 3
bounding k, min: 1e-16 max: 0.560196356109723 average: 0.01274230316549229
ExecutionTime = 380.46 s  ClockTime = 708 s

Time = 1041

DILUPBiCGStab:  Solving for Ux, Initial residual = 1.653260917313726e-07, Final residual = 4.956761475250648e-11, No Iterations 4
DILUPBiCGStab:  Solving for Uy, Initial residual = 4.811682585683055e-07, Final residual = 7.342018481755198e-11, No Iterations 5
DILUPBiCGStab:  Solving for Uz, Initial residual = 0.3128220721650208, Final residual = 5.003696697450884e-11, No Iterations 11
GAMG:  Solving for p, Initial residual = 1.190174352383066e-07, Final residual = 5.152740263404166e-09, No Iterations 6
time step continuity errors : sum local = 1.321749158526034e-09, global = -1.043314482506481e-10, cumulative = 0.001086749696536566
DILUPBiCGStab:  Solving for omega, Initial residual = 1.245754741719454e-10, Final residual = 2.73388599102983e-12, No Iterations 1
DILUPBiCGStab:  Solving for k, Initial residual = 5.171703649360054e-08, Final residual = 8.216522739233072e-11, No Iterations 3
bounding k, min: 1e-16 max: 0.5601963042472468 average: 0.01274230271117751
ExecutionTime = 380.84 s  ClockTime = 709 s

Time = 1042

DILUPBiCGStab:  Solving for Ux, Initial residual = 1.635933665533483e-07, Final residual = 4.869510641254637e-11, No Iterations 4
DILUPBiCGStab:  Solving for Uy, Initial residual = 4.941009759752222e-07, Final residual = 7.780906700338345e-11, No Iterations 5
DILUPBiCGStab:  Solving for Uz, Initial residual = 0.3161404812751943, Final residual = 3.813925738333667e-11, No Iterations 12
GAMG:  Solving for p, Initial residual = 1.039573263040133e-07, Final residual = 3.928551232180637e-09, No Iterations 8
time step continuity errors : sum local = 1.00773011146437e-09, global = -1.155966771889328e-10, cumulative = 0.001086749580939889
DILUPBiCGStab:  Solving for omega, Initial residual = 1.232192941385402e-10, Final residual = 2.708897146563863e-12, No Iterations 1
DILUPBiCGStab:  Solving for k, Initial residual = 5.132190273849051e-08, Final residual = 8.140120464746496e-11, No Iterations 3
bounding k, min: 1e-16 max: 0.5601962526458379 average: 0.01274230226339616
ExecutionTime = 381.07 s  ClockTime = 709 s

Time = 1043

DILUPBiCGStab:  Solving for Ux, Initial residual = 1.623502813951939e-07, Final residual = 4.831503900433799e-11, No Iterations 4
DILUPBiCGStab:  Solving for Uy, Initial residual = 4.736351500966379e-07, Final residual = 7.191046938440149e-11, No Iterations 5
DILUPBiCGStab:  Solving for Uz, Initial residual = 0.3057363138792192, Final residual = 5.979990350497548e-11, No Iterations 11
GAMG:  Solving for p, Initial residual = 1.1825638803905e-07, Final residual = 5.81353664616702e-09, No Iterations 5
time step continuity errors : sum local = 1.491251422167357e-09, global = -4.485502999390344e-10, cumulative = 0.001086749132389589
DILUPBiCGStab:  Solving for omega, Initial residual = 1.218738320133205e-10, Final residual = 2.684482047663948e-12, No Iterations 1
DILUPBiCGStab:  Solving for k, Initial residual = 5.095844328449225e-08, Final residual = 8.127753334362833e-11, No Iterations 3
bounding k, min: 1e-16 max: 0.5601962014170745 average: 0.01274230181619897
ExecutionTime = 381.36 s  ClockTime = 710 s

Time = 1044

DILUPBiCGStab:  Solving for Ux, Initial residual = 1.606072580788687e-07, Final residual = 4.728314870359651e-11, No Iterations 4
DILUPBiCGStab:  Solving for Uy, Initial residual = 4.885947733277595e-07, Final residual = 7.658839914230915e-11, No Iterations 5
DILUPBiCGStab:  Solving for Uz, Initial residual = 0.3144843515077337, Final residual = 5.666326184995786e-11, No Iterations 11
GAMG:  Solving for p, Initial residual = 1.049317728693341e-07, Final residual = 5.057856092941101e-09, No Iterations 7
time step continuity errors : sum local = 1.297408746439596e-09, global = -1.302128037383735e-10, cumulative = 0.001086749002176785
DILUPBiCGStab:  Solving for omega, Initial residual = 1.205455769648052e-10, Final residual = 2.66003283128511e-12, No Iterations 1
DILUPBiCGStab:  Solving for k, Initial residual = 5.057272088925492e-08, Final residual = 8.046994342415791e-11, No Iterations 3
bounding k, min: 1e-16 max: 0.5601961504329479 average: 0.01274230137689593
ExecutionTime = 381.72 s  ClockTime = 711 s

Time = 1045

DILUPBiCGStab:  Solving for Ux, Initial residual = 1.594729811910422e-07, Final residual = 4.710276436506806e-11, No Iterations 4
DILUPBiCGStab:  Solving for Uy, Initial residual = 4.649353669950722e-07, Final residual = 7.053773005628018e-11, No Iterations 5
DILUPBiCGStab:  Solving for Uz, Initial residual = 0.3174761680514063, Final residual = 7.657814691557442e-11, No Iterations 11
GAMG:  Solving for p, Initial residual = 1.182571850994308e-07, Final residual = 5.807825508011533e-09, No Iterations 6
time step continuity errors : sum local = 1.489784397442615e-09, global = -1.424490204394913e-10, cumulative = 0.001086748859727764
DILUPBiCGStab:  Solving for omega, Initial residual = 1.192271745189665e-10, Final residual = 2.636057960792238e-12, No Iterations 1
DILUPBiCGStab:  Solving for k, Initial residual = 5.019910153234502e-08, Final residual = 8.019474957523059e-11, No Iterations 3
bounding k, min: 1e-16 max: 0.5601960998290005 average: 0.01274230093881146
ExecutionTime = 381.91 s  ClockTime = 711 s

Time = 1046

DILUPBiCGStab:  Solving for Ux, Initial residual = 1.576910320144847e-07, Final residual = 4.620722160867442e-11, No Iterations 4
DILUPBiCGStab:  Solving for Uy, Initial residual = 4.796451729272994e-07, Final residual = 7.484326054864303e-11, No Iterations 5
DILUPBiCGStab:  Solving for Uz, Initial residual = 0.3191590238191007, Final residual = 6.891188633920851e-11, No Iterations 11
GAMG:  Solving for p, Initial residual = 1.014408397273072e-07, Final residual = 3.893971488425865e-09, No Iterations 8
time step continuity errors : sum local = 9.988552543044371e-10, global = -1.131938169783444e-10, cumulative = 0.001086748746533948
DILUPBiCGStab:  Solving for omega, Initial residual = 1.179244427448353e-10, Final residual = 2.612267189302795e-12, No Iterations 1
DILUPBiCGStab:  Solving for k, Initial residual = 4.98313283671188e-08, Final residual = 7.949749342674676e-11, No Iterations 3
bounding k, min: 1e-16 max: 0.5601960494691288 average: 0.01274230050780289
ExecutionTime = 382.16 s  ClockTime = 712 s

Time = 1047

DILUPBiCGStab:  Solving for Ux, Initial residual = 1.565585586720442e-07, Final residual = 4.583112515079863e-11, No Iterations 4
DILUPBiCGStab:  Solving for Uy, Initial residual = 4.616182846233022e-07, Final residual = 6.977153030626666e-11, No Iterations 5
DILUPBiCGStab:  Solving for Uz, Initial residual = 0.3208229421301223, Final residual = 5.63595772573267e-11, No Iterations 11
GAMG:  Solving for p, Initial residual = 1.117874043863307e-07, Final residual = 5.117637625011741e-09, No Iterations 6
time step continuity errors : sum local = 1.312741018899315e-09, global = -9.971136988555265e-11, cumulative = 0.001086748646822578
DILUPBiCGStab:  Solving for omega, Initial residual = 1.166366979082922e-10, Final residual = 2.588790724421869e-12, No Iterations 1
DILUPBiCGStab:  Solving for k, Initial residual = 4.945755563604344e-08, Final residual = 7.919317374868751e-11, No Iterations 3
bounding k, min: 1e-16 max: 0.5601959994766965 average: 0.0127423000781973
ExecutionTime = 382.48 s  ClockTime = 712 s

Time = 1048

DILUPBiCGStab:  Solving for Ux, Initial residual = 1.548220234180848e-07, Final residual = 4.493829721411879e-11, No Iterations 4
DILUPBiCGStab:  Solving for Uy, Initial residual = 4.704677811448401e-07, Final residual = 7.309228168009205e-11, No Iterations 5
DILUPBiCGStab:  Solving for Uz, Initial residual = 0.3127837190960643, Final residual = 3.504007359082323e-11, No Iterations 12
GAMG:  Solving for p, Initial residual = 9.99817127763057e-08, Final residual = 4.721401325337349e-09, No Iterations 7
time step continuity errors : sum local = 1.21110426174875e-09, global = -1.644915061627275e-10, cumulative = 0.001086748482331072
DILUPBiCGStab:  Solving for omega, Initial residual = 1.153592181779919e-10, Final residual = 2.565217534838336e-12, No Iterations 1
DILUPBiCGStab:  Solving for k, Initial residual = 4.911217559752587e-08, Final residual = 7.865733806616466e-11, No Iterations 3
bounding k, min: 1e-16 max: 0.5601959497410881 average: 0.01274229965339364
ExecutionTime = 382.87 s  ClockTime = 713 s

Time = 1049

DILUPBiCGStab:  Solving for Ux, Initial residual = 1.537227935619203e-07, Final residual = 4.445281378102006e-11, No Iterations 4
DILUPBiCGStab:  Solving for Uy, Initial residual = 4.584378723372708e-07, Final residual = 6.892238352104004e-11, No Iterations 5
DILUPBiCGStab:  Solving for Uz, Initial residual = 0.3102593961432978, Final residual = 6.638120138833185e-11, No Iterations 11
GAMG:  Solving for p, Initial residual = 1.066075756169127e-07, Final residual = 5.169535199285414e-09, No Iterations 6
time step continuity errors : sum local = 1.326049765335495e-09, global = -1.04208906392488e-10, cumulative = 0.001086748378122165
DILUPBiCGStab:  Solving for omega, Initial residual = 1.141015513168461e-10, Final residual = 2.54199737499297e-12, No Iterations 1
DILUPBiCGStab:  Solving for k, Initial residual = 4.873706911890662e-08, Final residual = 7.821368761812085e-11, No Iterations 3
bounding k, min: 1e-16 max: 0.5601959003478514 average: 0.01274229923121071
ExecutionTime = 383.25 s  ClockTime = 714 s

Time = 1050

DILUPBiCGStab:  Solving for Ux, Initial residual = 1.520983153569397e-07, Final residual = 4.368092031207168e-11, No Iterations 4
DILUPBiCGStab:  Solving for Uy, Initial residual = 4.601417192077719e-07, Final residual = 7.104081588507071e-11, No Iterations 5
DILUPBiCGStab:  Solving for Uz, Initial residual = 0.3139937018315447, Final residual = 7.385795852594104e-11, No Iterations 11
GAMG:  Solving for p, Initial residual = 9.912583550784776e-08, Final residual = 4.574675862596256e-09, No Iterations 6
time step continuity errors : sum local = 1.1734625621782e-09, global = -1.257791975855798e-10, cumulative = 0.001086748252342967
DILUPBiCGStab:  Solving for omega, Initial residual = 1.128496926387629e-10, Final residual = 2.519252552249093e-12, No Iterations 1
DILUPBiCGStab:  Solving for k, Initial residual = 4.839178164778301e-08, Final residual = 7.772007759553586e-11, No Iterations 3
bounding k, min: 1e-16 max: 0.5601958512292506 average: 0.0127422988141683
ExecutionTime = 383.53 s  ClockTime = 714 s

Time = 1051

DILUPBiCGStab:  Solving for Ux, Initial residual = 1.509130173686694e-07, Final residual = 4.33106453951514e-11, No Iterations 4
DILUPBiCGStab:  Solving for Uy, Initial residual = 4.532298658564379e-07, Final residual = 6.854669303108374e-11, No Iterations 5
DILUPBiCGStab:  Solving for Uz, Initial residual = 0.3118217275576383, Final residual = 9.77481813329665e-11, No Iterations 11
GAMG:  Solving for p, Initial residual = 1.00212564204714e-07, Final residual = 4.037034469223716e-09, No Iterations 7
time step continuity errors : sum local = 1.035551576904931e-09, global = -1.719832723455431e-10, cumulative = 0.001086748080359695
DILUPBiCGStab:  Solving for omega, Initial residual = 1.116205936549985e-10, Final residual = 2.496664941671969e-12, No Iterations 1
DILUPBiCGStab:  Solving for k, Initial residual = 4.802660140502069e-08, Final residual = 7.721318250080032e-11, No Iterations 3
bounding k, min: 1e-16 max: 0.5601958024320713 average: 0.0127422984006176
ExecutionTime = 383.94 s  ClockTime = 715 s

Time = 1052

